* NGSPICE file created from LUT4AB.ext - technology: ihp-sg13g2

* Black-box entry subcircuit for sg13g2_nand2_1 abstract view
.subckt sg13g2_nand2_1 Y A B VDD VSS
.ends

* Black-box entry subcircuit for sg13g2_o21ai_1 abstract view
.subckt sg13g2_o21ai_1 B1 VDD Y VSS A1 A2
.ends

* Black-box entry subcircuit for sg13g2_buf_1 abstract view
.subckt sg13g2_buf_1 A X VDD VSS
.ends

* Black-box entry subcircuit for sg13g2_dlhq_1 abstract view
.subckt sg13g2_dlhq_1 D GATE Q VDD VSS
.ends

* Black-box entry subcircuit for sg13g2_fill_2 abstract view
.subckt sg13g2_fill_2 VDD VSS
.ends

* Black-box entry subcircuit for sg13g2_fill_1 abstract view
.subckt sg13g2_fill_1 VDD VSS
.ends

* Black-box entry subcircuit for sg13g2_mux4_1 abstract view
.subckt sg13g2_mux4_1 S0 A0 A1 A2 A3 S1 X VDD VSS
.ends

* Black-box entry subcircuit for sg13g2_mux2_1 abstract view
.subckt sg13g2_mux2_1 A0 A1 S X VDD VSS
.ends

* Black-box entry subcircuit for sg13g2_nand2b_1 abstract view
.subckt sg13g2_nand2b_1 Y B A_N VDD VSS
.ends

* Black-box entry subcircuit for sg13g2_a21oi_1 abstract view
.subckt sg13g2_a21oi_1 VSS VDD A1 A2 Y B1
.ends

* Black-box entry subcircuit for sg13g2_nor2_1 abstract view
.subckt sg13g2_nor2_1 A B Y VDD VSS
.ends

* Black-box entry subcircuit for sg13g2_inv_1 abstract view
.subckt sg13g2_inv_1 VDD Y A VSS
.ends

* Black-box entry subcircuit for sg13g2_or2_1 abstract view
.subckt sg13g2_or2_1 VSS VDD X B A
.ends

* Black-box entry subcircuit for sg13g2_nor2b_1 abstract view
.subckt sg13g2_nor2b_1 A B_N Y VDD VSS
.ends

* Black-box entry subcircuit for sg13g2_antennanp abstract view
.subckt sg13g2_antennanp VDD VSS A
.ends

* Black-box entry subcircuit for sg13g2_a21o_1 abstract view
.subckt sg13g2_a21o_1 A2 A1 B1 X VDD VSS
.ends

* Black-box entry subcircuit for sg13g2_a22oi_1 abstract view
.subckt sg13g2_a22oi_1 Y B1 B2 A2 A1 VDD VSS
.ends

* Black-box entry subcircuit for sg13g2_a221oi_1 abstract view
.subckt sg13g2_a221oi_1 VDD VSS B2 C1 B1 A1 Y A2
.ends

* Black-box entry subcircuit for sg13g2_nand3_1 abstract view
.subckt sg13g2_nand3_1 B C A Y VDD VSS
.ends

* Black-box entry subcircuit for sg13g2_or3_1 abstract view
.subckt sg13g2_or3_1 A B C X VDD VSS
.ends

* Black-box entry subcircuit for sg13g2_tiehi abstract view
.subckt sg13g2_tiehi VDD VSS L_HI
.ends

* Black-box entry subcircuit for sg13g2_and2_1 abstract view
.subckt sg13g2_and2_1 A B X VDD VSS
.ends

* Black-box entry subcircuit for sg13g2_dfrbpq_1 abstract view
.subckt sg13g2_dfrbpq_1 RESET_B VSS VDD D Q CLK
.ends

* Black-box entry subcircuit for sg13g2_nor3_1 abstract view
.subckt sg13g2_nor3_1 A B C Y VDD VSS
.ends

* Black-box entry subcircuit for sg13g2_or4_1 abstract view
.subckt sg13g2_or4_1 A B C D X VDD VSS
.ends

* Black-box entry subcircuit for sg13g2_buf_8 abstract view
.subckt sg13g2_buf_8 A X VDD VSS
.ends

* Black-box entry subcircuit for sg13g2_decap_4 abstract view
.subckt sg13g2_decap_4 VDD VSS
.ends

* Black-box entry subcircuit for sg13g2_nand3b_1 abstract view
.subckt sg13g2_nand3b_1 B C Y VDD VSS A_N
.ends

* Black-box entry subcircuit for sg13g2_and3_1 abstract view
.subckt sg13g2_and3_1 X A B C VDD VSS
.ends

* Black-box entry subcircuit for sg13g2_nor4_1 abstract view
.subckt sg13g2_nor4_1 A B C D Y VDD VSS
.ends

* Black-box entry subcircuit for sg13g2_decap_8 abstract view
.subckt sg13g2_decap_8 VDD VSS
.ends

.subckt LUT4AB Ci Co E1BEG[0] E1BEG[1] E1BEG[2] E1BEG[3] E1END[0] E1END[1] E1END[2]
+ E1END[3] E2BEG[0] E2BEG[1] E2BEG[2] E2BEG[3] E2BEG[4] E2BEG[5] E2BEG[6] E2BEG[7]
+ E2BEGb[0] E2BEGb[1] E2BEGb[2] E2BEGb[3] E2BEGb[4] E2BEGb[5] E2BEGb[6] E2BEGb[7]
+ E2END[0] E2END[1] E2END[2] E2END[3] E2END[4] E2END[5] E2END[6] E2END[7] E2MID[0]
+ E2MID[1] E2MID[2] E2MID[3] E2MID[4] E2MID[5] E2MID[6] E2MID[7] E6BEG[0] E6BEG[10]
+ E6BEG[11] E6BEG[1] E6BEG[2] E6BEG[3] E6BEG[4] E6BEG[5] E6BEG[6] E6BEG[7] E6BEG[8]
+ E6BEG[9] E6END[0] E6END[10] E6END[11] E6END[1] E6END[2] E6END[3] E6END[4] E6END[5]
+ E6END[6] E6END[7] E6END[8] E6END[9] EE4BEG[0] EE4BEG[10] EE4BEG[11] EE4BEG[12] EE4BEG[13]
+ EE4BEG[14] EE4BEG[15] EE4BEG[1] EE4BEG[2] EE4BEG[3] EE4BEG[4] EE4BEG[5] EE4BEG[6]
+ EE4BEG[7] EE4BEG[8] EE4BEG[9] EE4END[0] EE4END[10] EE4END[11] EE4END[12] EE4END[13]
+ EE4END[14] EE4END[15] EE4END[1] EE4END[2] EE4END[3] EE4END[4] EE4END[5] EE4END[6]
+ EE4END[7] EE4END[8] EE4END[9] FrameData[0] FrameData[10] FrameData[11] FrameData[12]
+ FrameData[13] FrameData[14] FrameData[15] FrameData[16] FrameData[17] FrameData[18]
+ FrameData[19] FrameData[1] FrameData[20] FrameData[21] FrameData[22] FrameData[23]
+ FrameData[24] FrameData[25] FrameData[26] FrameData[27] FrameData[28] FrameData[29]
+ FrameData[2] FrameData[30] FrameData[31] FrameData[3] FrameData[4] FrameData[5]
+ FrameData[6] FrameData[7] FrameData[8] FrameData[9] FrameData_O[0] FrameData_O[10]
+ FrameData_O[11] FrameData_O[12] FrameData_O[13] FrameData_O[14] FrameData_O[15]
+ FrameData_O[16] FrameData_O[17] FrameData_O[18] FrameData_O[19] FrameData_O[1] FrameData_O[20]
+ FrameData_O[21] FrameData_O[22] FrameData_O[23] FrameData_O[24] FrameData_O[25]
+ FrameData_O[26] FrameData_O[27] FrameData_O[28] FrameData_O[29] FrameData_O[2] FrameData_O[30]
+ FrameData_O[31] FrameData_O[3] FrameData_O[4] FrameData_O[5] FrameData_O[6] FrameData_O[7]
+ FrameData_O[8] FrameData_O[9] FrameStrobe[0] FrameStrobe[10] FrameStrobe[11] FrameStrobe[12]
+ FrameStrobe[13] FrameStrobe[14] FrameStrobe[15] FrameStrobe[16] FrameStrobe[17]
+ FrameStrobe[18] FrameStrobe[19] FrameStrobe[1] FrameStrobe[2] FrameStrobe[3] FrameStrobe[4]
+ FrameStrobe[5] FrameStrobe[6] FrameStrobe[7] FrameStrobe[8] FrameStrobe[9] FrameStrobe_O[0]
+ FrameStrobe_O[10] FrameStrobe_O[11] FrameStrobe_O[12] FrameStrobe_O[13] FrameStrobe_O[14]
+ FrameStrobe_O[15] FrameStrobe_O[16] FrameStrobe_O[17] FrameStrobe_O[18] FrameStrobe_O[19]
+ FrameStrobe_O[1] FrameStrobe_O[2] FrameStrobe_O[3] FrameStrobe_O[4] FrameStrobe_O[5]
+ FrameStrobe_O[6] FrameStrobe_O[7] FrameStrobe_O[8] FrameStrobe_O[9] N1BEG[0] N1BEG[1]
+ N1BEG[2] N1BEG[3] N1END[0] N1END[1] N1END[2] N1END[3] N2BEG[0] N2BEG[1] N2BEG[2]
+ N2BEG[3] N2BEG[4] N2BEG[5] N2BEG[6] N2BEG[7] N2BEGb[0] N2BEGb[1] N2BEGb[2] N2BEGb[3]
+ N2BEGb[4] N2BEGb[5] N2BEGb[6] N2BEGb[7] N2END[0] N2END[1] N2END[2] N2END[3] N2END[4]
+ N2END[5] N2END[6] N2END[7] N2MID[0] N2MID[1] N2MID[2] N2MID[3] N2MID[4] N2MID[5]
+ N2MID[6] N2MID[7] N4BEG[0] N4BEG[10] N4BEG[11] N4BEG[12] N4BEG[13] N4BEG[14] N4BEG[15]
+ N4BEG[1] N4BEG[2] N4BEG[3] N4BEG[4] N4BEG[5] N4BEG[6] N4BEG[7] N4BEG[8] N4BEG[9]
+ N4END[0] N4END[10] N4END[11] N4END[12] N4END[13] N4END[14] N4END[15] N4END[1] N4END[2]
+ N4END[3] N4END[4] N4END[5] N4END[6] N4END[7] N4END[8] N4END[9] NN4BEG[0] NN4BEG[10]
+ NN4BEG[11] NN4BEG[12] NN4BEG[13] NN4BEG[14] NN4BEG[15] NN4BEG[1] NN4BEG[2] NN4BEG[3]
+ NN4BEG[4] NN4BEG[5] NN4BEG[6] NN4BEG[7] NN4BEG[8] NN4BEG[9] NN4END[0] NN4END[10]
+ NN4END[11] NN4END[12] NN4END[13] NN4END[14] NN4END[15] NN4END[1] NN4END[2] NN4END[3]
+ NN4END[4] NN4END[5] NN4END[6] NN4END[7] NN4END[8] NN4END[9] S1BEG[0] S1BEG[1] S1BEG[2]
+ S1BEG[3] S1END[0] S1END[1] S1END[2] S1END[3] S2BEG[0] S2BEG[1] S2BEG[2] S2BEG[3]
+ S2BEG[4] S2BEG[5] S2BEG[6] S2BEG[7] S2BEGb[0] S2BEGb[1] S2BEGb[2] S2BEGb[3] S2BEGb[4]
+ S2BEGb[5] S2BEGb[6] S2BEGb[7] S2END[0] S2END[1] S2END[2] S2END[3] S2END[4] S2END[5]
+ S2END[6] S2END[7] S2MID[0] S2MID[1] S2MID[2] S2MID[3] S2MID[4] S2MID[5] S2MID[6]
+ S2MID[7] S4BEG[0] S4BEG[10] S4BEG[11] S4BEG[12] S4BEG[13] S4BEG[14] S4BEG[15] S4BEG[1]
+ S4BEG[2] S4BEG[3] S4BEG[4] S4BEG[5] S4BEG[6] S4BEG[7] S4BEG[8] S4BEG[9] S4END[0]
+ S4END[10] S4END[11] S4END[12] S4END[13] S4END[14] S4END[15] S4END[1] S4END[2] S4END[3]
+ S4END[4] S4END[5] S4END[6] S4END[7] S4END[8] S4END[9] SS4BEG[0] SS4BEG[10] SS4BEG[11]
+ SS4BEG[12] SS4BEG[13] SS4BEG[14] SS4BEG[15] SS4BEG[1] SS4BEG[2] SS4BEG[3] SS4BEG[4]
+ SS4BEG[5] SS4BEG[6] SS4BEG[7] SS4BEG[8] SS4BEG[9] SS4END[0] SS4END[10] SS4END[11]
+ SS4END[12] SS4END[13] SS4END[14] SS4END[15] SS4END[1] SS4END[2] SS4END[3] SS4END[4]
+ SS4END[5] SS4END[6] SS4END[7] SS4END[8] SS4END[9] UserCLK UserCLKo VGND VPWR W1BEG[0]
+ W1BEG[1] W1BEG[2] W1BEG[3] W1END[0] W1END[1] W1END[2] W1END[3] W2BEG[0] W2BEG[1]
+ W2BEG[2] W2BEG[3] W2BEG[4] W2BEG[5] W2BEG[6] W2BEG[7] W2BEGb[0] W2BEGb[1] W2BEGb[2]
+ W2BEGb[3] W2BEGb[4] W2BEGb[5] W2BEGb[6] W2BEGb[7] W2END[0] W2END[1] W2END[2] W2END[3]
+ W2END[4] W2END[5] W2END[6] W2END[7] W2MID[0] W2MID[1] W2MID[2] W2MID[3] W2MID[4]
+ W2MID[5] W2MID[6] W2MID[7] W6BEG[0] W6BEG[10] W6BEG[11] W6BEG[1] W6BEG[2] W6BEG[3]
+ W6BEG[4] W6BEG[5] W6BEG[6] W6BEG[7] W6BEG[8] W6BEG[9] W6END[0] W6END[10] W6END[11]
+ W6END[1] W6END[2] W6END[3] W6END[4] W6END[5] W6END[6] W6END[7] W6END[8] W6END[9]
+ WW4BEG[0] WW4BEG[10] WW4BEG[11] WW4BEG[12] WW4BEG[13] WW4BEG[14] WW4BEG[15] WW4BEG[1]
+ WW4BEG[2] WW4BEG[3] WW4BEG[4] WW4BEG[5] WW4BEG[6] WW4BEG[7] WW4BEG[8] WW4BEG[9]
+ WW4END[0] WW4END[10] WW4END[11] WW4END[12] WW4END[13] WW4END[14] WW4END[15] WW4END[1]
+ WW4END[2] WW4END[3] WW4END[4] WW4END[5] WW4END[6] WW4END[7] WW4END[8] WW4END[9]
X_2106_ _0754_ Inst_LUT4AB_ConfigMem.Inst_frame14_bit16.Q _0670_ VPWR VGND sg13g2_nand2_1
X_2037_ _0689_ VPWR _0690_ VGND Inst_LUT4AB_ConfigMem.Inst_frame8_bit20.Q _0230_ sg13g2_o21ai_1
X_3086_ Inst_LUT4AB_switch_matrix.E6BEG1 E6BEG[11] VPWR VGND sg13g2_buf_1
X_3155_ Inst_LUT4AB_switch_matrix.N1BEG0 N1BEG[0] VPWR VGND sg13g2_buf_1
X_2939_ FrameData[28] FrameStrobe[3] Inst_LUT4AB_ConfigMem.Inst_frame3_bit28.Q VPWR
+ VGND sg13g2_dlhq_1
XFILLER_5_321 VPWR VGND sg13g2_fill_2
XFILLER_13_144 VPWR VGND sg13g2_fill_1
X_1270_ _1107_ VPWR _1108_ VGND Inst_LUT4AB_ConfigMem.Inst_frame4_bit0.Q _1106_ sg13g2_o21ai_1
X_2655_ FrameData[0] FrameStrobe[11] Inst_LUT4AB_ConfigMem.Inst_frame11_bit0.Q VPWR
+ VGND sg13g2_dlhq_1
X_2724_ FrameData[5] FrameStrobe[9] Inst_LUT4AB_ConfigMem.Inst_frame9_bit5.Q VPWR
+ VGND sg13g2_dlhq_1
X_1606_ Inst_LUT4AB_ConfigMem.Inst_frame7_bit15.Q _1021_ _1026_ _1034_ _0275_ Inst_LUT4AB_ConfigMem.Inst_frame7_bit14.Q
+ _0276_ VPWR VGND sg13g2_mux4_1
X_1468_ S1END[1] S1END[3] Inst_LUT4AB_ConfigMem.Inst_frame3_bit10.Q _0143_ VPWR VGND
+ sg13g2_mux2_1
X_3207_ Inst_LUT4AB_switch_matrix.S1BEG0 S1BEG[0] VPWR VGND sg13g2_buf_1
X_2586_ FrameData[27] FrameStrobe[14] Inst_LUT4AB_ConfigMem.Inst_frame14_bit27.Q VPWR
+ VGND sg13g2_dlhq_1
X_1399_ _0076_ _0075_ _0074_ VPWR VGND sg13g2_nand2b_1
X_1537_ _0201_ VPWR _0209_ VGND _0200_ _0208_ sg13g2_o21ai_1
X_3138_ FrameStrobe[3] FrameStrobe_O[3] VPWR VGND sg13g2_buf_1
X_3069_ E2MID[2] E2BEGb[2] VPWR VGND sg13g2_buf_1
XFILLER_37_62 VPWR VGND sg13g2_fill_1
X_2440_ FrameData[9] FrameStrobe[18] Inst_LA_LUT4c_frame_config_dffesr.c_I0mux VPWR
+ VGND sg13g2_dlhq_1
X_1253_ VGND VPWR Inst_LUT4AB_ConfigMem.Inst_frame4_bit7.Q _1090_ _1092_ _1091_ sg13g2_a21oi_1
X_2371_ Inst_LUT4AB_ConfigMem.Inst_frame0_bit29.Q _0453_ _0968_ VPWR VGND sg13g2_nor2_1
X_1322_ Inst_LUT4AB_ConfigMem.Inst_frame8_bit30.Q N2MID[4] E2MID[4] W2MID[4] Inst_LUT4AB_switch_matrix.JS2BEG3
+ Inst_LUT4AB_ConfigMem.Inst_frame8_bit31.Q _1157_ VPWR VGND sg13g2_mux4_1
X_1184_ VPWR _1025_ Inst_LUT4AB_ConfigMem.Inst_frame2_bit9.Q VGND sg13g2_inv_1
XFILLER_20_423 VPWR VGND sg13g2_fill_1
X_2569_ FrameData[10] FrameStrobe[14] Inst_LH_LUT4c_frame_config_dffesr.inst_cus_mux161_buf.A13
+ VPWR VGND sg13g2_dlhq_1
X_2638_ FrameData[15] FrameStrobe[12] Inst_LUT4AB_ConfigMem.Inst_frame12_bit15.Q VPWR
+ VGND sg13g2_dlhq_1
X_2707_ FrameData[20] FrameStrobe[10] Inst_LUT4AB_switch_matrix.DEBUG_select_LB_SR[0]
+ VPWR VGND sg13g2_dlhq_1
XFILLER_15_217 VPWR VGND sg13g2_fill_1
XFILLER_48_83 VPWR VGND sg13g2_fill_1
X_1940_ VGND VPWR _0598_ _0597_ _0595_ sg13g2_or2_1
X_1871_ VGND VPWR _0479_ _0490_ _0531_ _0488_ sg13g2_a21oi_1
XFILLER_14_250 VPWR VGND sg13g2_fill_2
X_2423_ FrameData[24] FrameStrobe[19] Inst_LA_LUT4c_frame_config_dffesr.inst_cus_mux161_buf.A0
+ VPWR VGND sg13g2_dlhq_1
X_2285_ Inst_LUT4AB_ConfigMem.Inst_frame12_bit4.Q _0912_ _0913_ _0914_ _0915_ Inst_LUT4AB_ConfigMem.Inst_frame12_bit5.Q
+ Inst_LUT4AB_switch_matrix.E6BEG0 VPWR VGND sg13g2_mux4_1
X_1236_ Inst_LUT4AB_ConfigMem.Inst_frame3_bit6.Q N1END[2] N2END[4] N4END[0] E2END[4]
+ Inst_LUT4AB_ConfigMem.Inst_frame3_bit7.Q _1076_ VPWR VGND sg13g2_mux4_1
X_2354_ Inst_LUT4AB_ConfigMem.Inst_frame12_bit12.Q F _0237_ Inst_LUT4AB_switch_matrix.E2BEG0
+ _0248_ Inst_LUT4AB_ConfigMem.Inst_frame12_bit13.Q Inst_LUT4AB_switch_matrix.S1BEG1
+ VPWR VGND sg13g2_mux4_1
X_1305_ Inst_LUT4AB_ConfigMem.Inst_frame6_bit31.Q N2END[4] S2END[4] EE4END[0] W2END[4]
+ Inst_LUT4AB_ConfigMem.Inst_frame6_bit30.Q _1141_ VPWR VGND sg13g2_mux4_1
XFILLER_4_419 VPWR VGND sg13g2_fill_1
XFILLER_28_397 VPWR VGND sg13g2_fill_1
X_2070_ Inst_LUT4AB_ConfigMem.Inst_frame1_bit24.Q VPWR _0721_ VGND Inst_LUT4AB_ConfigMem.Inst_frame1_bit23.Q
+ _0718_ sg13g2_o21ai_1
XFILLER_34_334 VPWR VGND sg13g2_fill_1
X_2972_ FrameData[29] FrameStrobe[2] Inst_LUT4AB_ConfigMem.Inst_frame2_bit29.Q VPWR
+ VGND sg13g2_dlhq_1
X_1923_ Inst_LUT4AB_ConfigMem.Inst_frame3_bit20.Q VPWR _0582_ VGND Inst_LUT4AB_ConfigMem.Inst_frame3_bit19.Q
+ _0581_ sg13g2_o21ai_1
X_1854_ Inst_LUT4AB_ConfigMem.Inst_frame4_bit21.Q _0514_ _0515_ VPWR VGND sg13g2_nor2_1
X_1785_ Inst_LUT4AB_switch_matrix.JW2BEG4 Inst_LUT4AB_ConfigMem.Inst_frame7_bit8.Q
+ _0448_ VPWR VGND sg13g2_nor2b_1
X_2406_ _0999_ Inst_LUT4AB_switch_matrix.DEBUG_select_LD_SR[0] _0985_ VPWR VGND sg13g2_nand2_1
X_2337_ Inst_LUT4AB_ConfigMem.Inst_frame13_bit2.Q G _0960_ VPWR VGND sg13g2_nor2b_1
X_2268_ _0898_ _0900_ Inst_LUT4AB_switch_matrix.SS4BEG0 VPWR VGND sg13g2_nor2_1
X_1219_ _1060_ _1059_ Inst_LUT4AB_ConfigMem.Inst_frame4_bit31.Q VPWR VGND sg13g2_nand2b_1
XFILLER_25_301 VPWR VGND sg13g2_fill_2
X_2199_ VGND VPWR Inst_LUT4AB_ConfigMem.Inst_frame10_bit0.Q _0838_ _0841_ _0840_ sg13g2_a21oi_1
XFILLER_52_164 VPWR VGND sg13g2_fill_1
X_1570_ _0241_ Inst_LUT4AB_ConfigMem.Inst_frame9_bit10.Q _0237_ VPWR VGND sg13g2_nand2_1
XANTENNA_5 VPWR VGND EE4END[5] sg13g2_antennanp
X_3240_ Inst_LUT4AB_switch_matrix.S4BEG1 S4BEG[13] VPWR VGND sg13g2_buf_1
X_3171_ N2MID[4] N2BEGb[4] VPWR VGND sg13g2_buf_1
X_2122_ Inst_LUT4AB_ConfigMem.Inst_frame2_bit28.Q VPWR _0768_ VGND Inst_LUT4AB_ConfigMem.Inst_frame2_bit27.Q
+ _0765_ sg13g2_o21ai_1
X_2053_ Inst_LUT4AB_ConfigMem.Inst_frame2_bit22.Q N1END[0] N2END[0] E1END[0] E2END[0]
+ Inst_LUT4AB_ConfigMem.Inst_frame2_bit23.Q _0705_ VPWR VGND sg13g2_mux4_1
X_2955_ FrameData[12] FrameStrobe[2] Inst_LUT4AB_ConfigMem.Inst_frame2_bit12.Q VPWR
+ VGND sg13g2_dlhq_1
X_1837_ VGND VPWR Inst_LUT4AB_ConfigMem.Inst_frame4_bit18.Q Inst_LUT4AB_switch_matrix.M_AH
+ _0498_ _0497_ sg13g2_a21oi_1
X_1906_ _0564_ VPWR _0565_ VGND Inst_LUT4AB_ConfigMem.Inst_frame8_bit3.Q _0562_ sg13g2_o21ai_1
X_1768_ VGND VPWR Inst_LUT4AB_ConfigMem.Inst_frame10_bit28.Q _0425_ _0432_ _0431_
+ sg13g2_a21oi_1
X_2886_ FrameData[7] FrameStrobe[4] Inst_LUT4AB_ConfigMem.Inst_frame4_bit7.Q VPWR
+ VGND sg13g2_dlhq_1
X_1699_ VGND VPWR _0365_ _0364_ _0362_ sg13g2_or2_1
XFILLER_48_234 VPWR VGND sg13g2_fill_2
XFILLER_16_120 VPWR VGND sg13g2_fill_1
X_1622_ Inst_LUT4AB_ConfigMem.Inst_frame3_bit14.Q E G H Inst_LUT4AB_switch_matrix.M_AB
+ Inst_LUT4AB_ConfigMem.Inst_frame3_bit15.Q _0292_ VPWR VGND sg13g2_mux4_1
X_2740_ FrameData[21] FrameStrobe[9] Inst_LUT4AB_ConfigMem.Inst_frame9_bit21.Q VPWR
+ VGND sg13g2_dlhq_1
X_2671_ FrameData[16] FrameStrobe[11] Inst_LUT4AB_ConfigMem.Inst_frame11_bit16.Q VPWR
+ VGND sg13g2_dlhq_1
X_1553_ _0224_ VPWR _0225_ VGND Inst_LUT4AB_ConfigMem.Inst_frame4_bit14.Q W1END[0]
+ sg13g2_o21ai_1
X_3223_ S2MID[4] S2BEGb[4] VPWR VGND sg13g2_buf_1
X_1484_ _0157_ VPWR _0158_ VGND Inst_LUT4AB_ConfigMem.Inst_frame2_bit2.Q H sg13g2_o21ai_1
X_2105_ _0752_ _0693_ Inst_LUT4AB_ConfigMem.Inst_frame14_bit17.Q _0753_ VPWR VGND
+ sg13g2_mux2_1
X_3085_ Inst_LUT4AB_switch_matrix.E6BEG0 E6BEG[10] VPWR VGND sg13g2_buf_1
X_2036_ VGND VPWR Inst_LUT4AB_ConfigMem.Inst_frame8_bit20.Q Inst_LUT4AB_switch_matrix.E2BEG5
+ _0689_ Inst_LUT4AB_ConfigMem.Inst_frame8_bit21.Q sg13g2_a21oi_1
X_3154_ FrameStrobe[19] FrameStrobe_O[19] VPWR VGND sg13g2_buf_1
X_2938_ FrameData[27] FrameStrobe[3] Inst_LUT4AB_ConfigMem.Inst_frame3_bit27.Q VPWR
+ VGND sg13g2_dlhq_1
X_2869_ FrameData[22] FrameStrobe[5] Inst_LUT4AB_ConfigMem.Inst_frame5_bit22.Q VPWR
+ VGND sg13g2_dlhq_1
XFILLER_7_8 VPWR VGND sg13g2_fill_2
XFILLER_5_399 VPWR VGND sg13g2_fill_2
X_2723_ FrameData[4] FrameStrobe[9] Inst_LUT4AB_ConfigMem.Inst_frame9_bit4.Q VPWR
+ VGND sg13g2_dlhq_1
X_2654_ FrameData[31] FrameStrobe[12] Inst_LUT4AB_ConfigMem.Inst_frame12_bit31.Q VPWR
+ VGND sg13g2_dlhq_1
X_1605_ VPWR Inst_LUT4AB_switch_matrix.JS2BEG5 _0275_ VGND sg13g2_inv_1
X_2585_ FrameData[26] FrameStrobe[14] Inst_LUT4AB_ConfigMem.Inst_frame14_bit26.Q VPWR
+ VGND sg13g2_dlhq_1
X_1536_ VGND VPWR _0204_ _0207_ _0208_ _0206_ sg13g2_a21oi_1
X_3206_ Inst_LUT4AB_switch_matrix.NN4BEG3 NN4BEG[15] VPWR VGND sg13g2_buf_1
X_1467_ _0141_ VPWR _0142_ VGND S2END[5] Inst_LUT4AB_ConfigMem.Inst_frame3_bit10.Q
+ sg13g2_o21ai_1
X_3137_ FrameStrobe[2] FrameStrobe_O[2] VPWR VGND sg13g2_buf_1
X_1398_ Inst_LUT4AB_ConfigMem.Inst_frame10_bit16.Q _1157_ _1159_ _1141_ _1140_ Inst_LUT4AB_ConfigMem.Inst_frame10_bit17.Q
+ _0075_ VPWR VGND sg13g2_mux4_1
X_2019_ VGND VPWR Inst_LUT4AB_ConfigMem.Inst_frame9_bit0.Q _0391_ _0673_ Inst_LUT4AB_ConfigMem.Inst_frame9_bit1.Q
+ sg13g2_a21oi_1
X_3068_ E2MID[1] E2BEGb[1] VPWR VGND sg13g2_buf_1
X_2370_ VGND VPWR Inst_LUT4AB_ConfigMem.Inst_frame0_bit29.Q _0048_ _0967_ Inst_LUT4AB_ConfigMem.Inst_frame0_bit30.Q
+ sg13g2_a21oi_1
X_1321_ _1156_ _1153_ _1148_ Inst_LUT4AB_switch_matrix.JS2BEG3 VPWR VGND sg13g2_a21o_1
XFILLER_1_380 VPWR VGND sg13g2_fill_1
X_1252_ Inst_LUT4AB_ConfigMem.Inst_frame4_bit8.Q VPWR _1091_ VGND Inst_LUT4AB_ConfigMem.Inst_frame4_bit7.Q
+ _1088_ sg13g2_o21ai_1
X_1183_ VPWR _1024_ Inst_LUT4AB_ConfigMem.Inst_frame2_bit8.Q VGND sg13g2_inv_1
X_2706_ FrameData[19] FrameStrobe[10] Inst_LUT4AB_ConfigMem.Inst_frame10_bit19.Q VPWR
+ VGND sg13g2_dlhq_1
X_2568_ FrameData[9] FrameStrobe[14] Inst_LH_LUT4c_frame_config_dffesr.inst_cus_mux161_buf.A12
+ VPWR VGND sg13g2_dlhq_1
X_1519_ Inst_LUT4AB_switch_matrix.JS2BEG4 _0191_ _1035_ _0182_ _0176_ VPWR VGND sg13g2_a22oi_1
X_2499_ FrameData[4] FrameStrobe[16] Inst_LE_LUT4c_frame_config_dffesr.inst_cus_mux161_buf.A0
+ VPWR VGND sg13g2_dlhq_1
X_2637_ FrameData[14] FrameStrobe[12] Inst_LUT4AB_ConfigMem.Inst_frame12_bit14.Q VPWR
+ VGND sg13g2_dlhq_1
X_1870_ Inst_LUT4AB_ConfigMem.Inst_frame9_bit30.Q _0520_ _0525_ _0529_ _0527_ Inst_LUT4AB_ConfigMem.Inst_frame9_bit31.Q
+ _0530_ VPWR VGND sg13g2_mux4_1
X_2422_ _1008_ VPWR _0007_ VGND _1010_ _1011_ sg13g2_o21ai_1
XFILLER_36_2 VPWR VGND sg13g2_fill_1
X_2353_ Inst_LUT4AB_ConfigMem.Inst_frame12_bit15.Q G Inst_LUT4AB_switch_matrix.E2BEG1
+ _0586_ _0623_ Inst_LUT4AB_ConfigMem.Inst_frame12_bit14.Q Inst_LUT4AB_switch_matrix.S1BEG2
+ VPWR VGND sg13g2_mux4_1
X_2284_ Inst_LUT4AB_ConfigMem.Inst_frame12_bit2.Q _1084_ _0148_ _0308_ _0586_ Inst_LUT4AB_ConfigMem.Inst_frame12_bit3.Q
+ _0915_ VPWR VGND sg13g2_mux4_1
X_1235_ VPWR VGND _1074_ _1019_ _1072_ _1068_ _1075_ _1070_ sg13g2_a221oi_1
X_1304_ Inst_LUT4AB_ConfigMem.Inst_frame1_bit30.Q N4END[1] E6END[1] W6END[1] Inst_LUT4AB_switch_matrix.JS2BEG1
+ Inst_LUT4AB_ConfigMem.Inst_frame1_bit31.Q _1140_ VPWR VGND sg13g2_mux4_1
XFILLER_37_387 VPWR VGND sg13g2_fill_2
XFILLER_20_210 VPWR VGND sg13g2_fill_1
X_1999_ Inst_LUT4AB_ConfigMem.Inst_frame8_bit14.Q _0617_ _0622_ _0626_ _0624_ Inst_LUT4AB_ConfigMem.Inst_frame8_bit15.Q
+ _0655_ VPWR VGND sg13g2_mux4_1
XFILLER_47_107 VPWR VGND sg13g2_fill_2
X_1922_ S1END[1] S1END[3] Inst_LUT4AB_ConfigMem.Inst_frame3_bit18.Q _0581_ VPWR VGND
+ sg13g2_mux2_1
X_2971_ FrameData[28] FrameStrobe[2] Inst_LUT4AB_ConfigMem.Inst_frame2_bit28.Q VPWR
+ VGND sg13g2_dlhq_1
X_1853_ VGND VPWR Inst_LUT4AB_ConfigMem.Inst_frame4_bit19.Q _0511_ _0514_ _0513_ sg13g2_a21oi_1
X_1784_ _0440_ _0447_ Inst_LUT4AB_switch_matrix.JW2BEG4 VPWR VGND sg13g2_nor2_1
XFILLER_41_0 VPWR VGND sg13g2_fill_1
X_2336_ VGND VPWR Inst_LUT4AB_ConfigMem.Inst_frame13_bit2.Q _0589_ _0959_ _0958_ sg13g2_a21oi_1
X_2405_ _0998_ Inst_LUT4AB_switch_matrix.DEBUG_select_LD_EN[0] _0973_ VPWR VGND sg13g2_nand2b_1
X_1218_ E6END[0] S2END[2] Inst_LUT4AB_ConfigMem.Inst_frame4_bit30.Q _1059_ VPWR VGND
+ sg13g2_mux2_1
X_2267_ Inst_LUT4AB_ConfigMem.Inst_frame12_bit28.Q _0899_ _0900_ VPWR VGND sg13g2_nor2_1
X_2198_ Inst_LUT4AB_ConfigMem.Inst_frame10_bit1.Q VPWR _0840_ VGND Inst_LUT4AB_ConfigMem.Inst_frame10_bit0.Q
+ _0839_ sg13g2_o21ai_1
XANTENNA_6 VPWR VGND EE4END[6] sg13g2_antennanp
X_3170_ N2MID[3] N2BEGb[3] VPWR VGND sg13g2_buf_1
X_2121_ _0766_ VPWR _0767_ VGND Inst_LUT4AB_ConfigMem.Inst_frame2_bit26.Q _1052_ sg13g2_o21ai_1
X_2052_ VGND VPWR _1045_ _0702_ _0704_ _0703_ sg13g2_a21oi_1
X_2954_ FrameData[11] FrameStrobe[2] Inst_LUT4AB_ConfigMem.Inst_frame2_bit11.Q VPWR
+ VGND sg13g2_dlhq_1
X_1905_ _0537_ Inst_LUT4AB_ConfigMem.Inst_frame8_bit2.Q _0563_ _0564_ VPWR VGND sg13g2_a21o_1
X_2885_ FrameData[6] FrameStrobe[4] Inst_LUT4AB_ConfigMem.Inst_frame4_bit6.Q VPWR
+ VGND sg13g2_dlhq_1
XFILLER_30_360 VPWR VGND sg13g2_fill_1
X_1836_ Inst_LUT4AB_ConfigMem.Inst_frame4_bit19.Q VPWR _0497_ VGND Inst_LUT4AB_ConfigMem.Inst_frame4_bit18.Q
+ _1052_ sg13g2_o21ai_1
X_1767_ Inst_LUT4AB_ConfigMem.Inst_frame10_bit29.Q VPWR _0431_ VGND Inst_LUT4AB_ConfigMem.Inst_frame10_bit28.Q
+ _0430_ sg13g2_o21ai_1
X_1698_ VGND VPWR Inst_LUT4AB_ConfigMem.Inst_frame0_bit2.Q Inst_LUT4AB_switch_matrix.JN2BEG2
+ _0364_ _0363_ sg13g2_a21oi_1
X_2319_ _0944_ VPWR _0945_ VGND Inst_LUT4AB_ConfigMem.Inst_frame13_bit11.Q _0556_
+ sg13g2_o21ai_1
X_3299_ WW4END[11] WW4BEG[7] VPWR VGND sg13g2_buf_1
X_1621_ Inst_LUT4AB_ConfigMem.Inst_frame3_bit14.Q A B C D Inst_LUT4AB_ConfigMem.Inst_frame3_bit15.Q
+ _0291_ VPWR VGND sg13g2_mux4_1
X_1552_ _0224_ Inst_LUT4AB_ConfigMem.Inst_frame4_bit14.Q W1END[2] VPWR VGND sg13g2_nand2b_1
X_2670_ FrameData[15] FrameStrobe[11] Inst_LUT4AB_ConfigMem.Inst_frame11_bit15.Q VPWR
+ VGND sg13g2_dlhq_1
X_3222_ S2MID[3] S2BEGb[3] VPWR VGND sg13g2_buf_1
X_1483_ _0157_ Inst_LUT4AB_ConfigMem.Inst_frame2_bit2.Q Inst_LUT4AB_switch_matrix.M_AB
+ VPWR VGND sg13g2_nand2b_1
X_2104_ _0751_ VPWR _0752_ VGND Inst_LUT4AB_ConfigMem.Inst_frame8_bit25.Q _0748_ sg13g2_o21ai_1
X_3153_ FrameStrobe[18] FrameStrobe_O[18] VPWR VGND sg13g2_buf_1
X_2035_ _0688_ Inst_LD_LUT4c_frame_config_dffesr.LUT_flop Inst_LD_LUT4c_frame_config_dffesr.c_out_mux
+ D VPWR VGND sg13g2_mux2_1
X_3084_ E6END[11] E6BEG[9] VPWR VGND sg13g2_buf_1
X_2868_ FrameData[21] FrameStrobe[5] Inst_LUT4AB_ConfigMem.Inst_frame5_bit21.Q VPWR
+ VGND sg13g2_dlhq_1
X_2937_ FrameData[26] FrameStrobe[3] Inst_LUT4AB_ConfigMem.Inst_frame3_bit26.Q VPWR
+ VGND sg13g2_dlhq_1
X_1819_ _0481_ _0480_ _0476_ _0479_ Inst_LF_LUT4c_frame_config_dffesr.c_I0mux VPWR
+ VGND sg13g2_a22oi_1
X_2799_ FrameData[16] FrameStrobe[7] Inst_LUT4AB_ConfigMem.Inst_frame7_bit16.Q VPWR
+ VGND sg13g2_dlhq_1
XFILLER_5_345 VPWR VGND sg13g2_fill_2
XFILLER_32_422 VPWR VGND sg13g2_fill_2
X_2722_ FrameData[3] FrameStrobe[9] Inst_LUT4AB_ConfigMem.Inst_frame9_bit3.Q VPWR
+ VGND sg13g2_dlhq_1
X_1604_ _0274_ VPWR _0275_ VGND _0257_ _0263_ sg13g2_o21ai_1
X_2653_ FrameData[30] FrameStrobe[12] Inst_LUT4AB_ConfigMem.Inst_frame12_bit30.Q VPWR
+ VGND sg13g2_dlhq_1
X_1535_ _0089_ _0083_ _0080_ _0207_ VPWR VGND sg13g2_a21o_1
X_2584_ FrameData[25] FrameStrobe[14] Inst_LUT4AB_ConfigMem.Inst_frame14_bit25.Q VPWR
+ VGND sg13g2_dlhq_1
X_3205_ Inst_LUT4AB_switch_matrix.NN4BEG2 NN4BEG[14] VPWR VGND sg13g2_buf_1
X_1466_ _0141_ Inst_LUT4AB_ConfigMem.Inst_frame3_bit10.Q W1END[1] VPWR VGND sg13g2_nand2b_1
X_3136_ FrameStrobe[1] FrameStrobe_O[1] VPWR VGND sg13g2_buf_1
X_1397_ Inst_LUT4AB_ConfigMem.Inst_frame10_bit14.Q _1083_ _1084_ _1066_ _1065_ Inst_LUT4AB_ConfigMem.Inst_frame10_bit15.Q
+ _0074_ VPWR VGND sg13g2_mux4_1
X_3067_ E2MID[0] E2BEGb[0] VPWR VGND sg13g2_buf_1
X_2018_ _0365_ Inst_LUT4AB_ConfigMem.Inst_frame9_bit0.Q _0671_ _0672_ VPWR VGND sg13g2_a21o_1
XFILLER_37_20 VPWR VGND sg13g2_fill_1
X_1320_ Inst_LUT4AB_ConfigMem.Inst_frame2_bit9.Q _1155_ _1156_ VPWR VGND sg13g2_nor2_1
XFILLER_49_330 VPWR VGND sg13g2_fill_2
X_1182_ VPWR _1023_ WW4END[2] VGND sg13g2_inv_1
X_1251_ _1089_ VPWR _1090_ VGND Inst_LUT4AB_ConfigMem.Inst_frame4_bit6.Q H sg13g2_o21ai_1
X_2705_ FrameData[18] FrameStrobe[10] Inst_LUT4AB_ConfigMem.Inst_frame10_bit18.Q VPWR
+ VGND sg13g2_dlhq_1
X_2636_ FrameData[13] FrameStrobe[12] Inst_LUT4AB_ConfigMem.Inst_frame12_bit13.Q VPWR
+ VGND sg13g2_dlhq_1
X_2567_ FrameData[8] FrameStrobe[14] Inst_LH_LUT4c_frame_config_dffesr.inst_cus_mux161_buf.A11
+ VPWR VGND sg13g2_dlhq_1
X_1518_ Inst_LUT4AB_ConfigMem.Inst_frame2_bit11.Q _0190_ _0188_ _0184_ _0186_ Inst_LUT4AB_ConfigMem.Inst_frame2_bit12.Q
+ _0191_ VPWR VGND sg13g2_mux4_1
X_2498_ FrameData[3] FrameStrobe[16] Inst_LD_LUT4c_frame_config_dffesr.c_reset_value
+ VPWR VGND sg13g2_dlhq_1
X_1449_ E6END[1] S2END[3] Inst_LUT4AB_ConfigMem.Inst_frame3_bit2.Q _0125_ VPWR VGND
+ sg13g2_mux2_1
X_3119_ FrameData[16] FrameData_O[16] VPWR VGND sg13g2_buf_1
XFILLER_23_241 VPWR VGND sg13g2_fill_2
XFILLER_23_285 VPWR VGND sg13g2_fill_1
XFILLER_14_252 VPWR VGND sg13g2_fill_1
X_2421_ _1007_ VPWR _1011_ VGND Inst_LG_LUT4c_frame_config_dffesr.c_reset_value _1009_
+ sg13g2_o21ai_1
X_2283_ Inst_LUT4AB_ConfigMem.Inst_frame12_bit2.Q G H Inst_LUT4AB_switch_matrix.M_AB
+ Inst_LUT4AB_switch_matrix.M_AH Inst_LUT4AB_ConfigMem.Inst_frame12_bit3.Q _0914_
+ VPWR VGND sg13g2_mux4_1
X_2352_ Inst_LUT4AB_ConfigMem.Inst_frame12_bit16.Q H _1159_ Inst_LUT4AB_switch_matrix.E2BEG2
+ _1118_ Inst_LUT4AB_ConfigMem.Inst_frame12_bit17.Q Inst_LUT4AB_switch_matrix.S1BEG3
+ VPWR VGND sg13g2_mux4_1
X_1303_ _1132_ _1129_ _1139_ Inst_LUT4AB_switch_matrix.JS2BEG1 VPWR VGND sg13g2_a21o_1
XFILLER_49_182 VPWR VGND sg13g2_fill_1
X_1234_ VGND VPWR _1017_ _1073_ _1074_ Inst_LUT4AB_ConfigMem.Inst_frame3_bit8.Q sg13g2_a21oi_1
X_1998_ _0645_ _0640_ _0653_ _0654_ VPWR VGND sg13g2_a21o_1
X_2619_ FrameData[28] FrameStrobe[13] Inst_LUT4AB_ConfigMem.Inst_frame13_bit28.Q VPWR
+ VGND sg13g2_dlhq_1
XFILLER_7_226 VPWR VGND sg13g2_fill_1
XFILLER_11_211 VPWR VGND sg13g2_fill_1
XFILLER_11_255 VPWR VGND sg13g2_fill_2
X_1921_ _0579_ VPWR _0580_ VGND S2END[7] Inst_LUT4AB_ConfigMem.Inst_frame3_bit18.Q
+ sg13g2_o21ai_1
X_1852_ Inst_LUT4AB_ConfigMem.Inst_frame4_bit20.Q VPWR _0513_ VGND Inst_LUT4AB_ConfigMem.Inst_frame4_bit19.Q
+ _0512_ sg13g2_o21ai_1
X_2970_ FrameData[27] FrameStrobe[2] Inst_LUT4AB_ConfigMem.Inst_frame2_bit27.Q VPWR
+ VGND sg13g2_dlhq_1
X_1783_ VPWR VGND _0446_ Inst_LUT4AB_ConfigMem.Inst_frame1_bit13.Q _0445_ _1039_ _0447_
+ _0441_ sg13g2_a221oi_1
X_2335_ Inst_LUT4AB_ConfigMem.Inst_frame13_bit3.Q VPWR _0958_ VGND Inst_LUT4AB_ConfigMem.Inst_frame13_bit2.Q
+ _0148_ sg13g2_o21ai_1
XFILLER_34_0 VPWR VGND sg13g2_fill_2
X_2266_ Inst_LUT4AB_ConfigMem.Inst_frame12_bit27.Q N1END[2] W1END[2] E1END[2] F Inst_LUT4AB_ConfigMem.Inst_frame12_bit26.Q
+ _0899_ VPWR VGND sg13g2_mux4_1
X_2404_ Inst_LC_LUT4c_frame_config_dffesr.LUT_flop _0997_ _0995_ _0003_ VPWR VGND
+ sg13g2_mux2_1
X_1217_ Inst_LUT4AB_ConfigMem.Inst_frame3_bit0.Q _1057_ _1058_ VPWR VGND sg13g2_nor2_1
X_2197_ Inst_LUT4AB_ConfigMem.Inst_frame11_bit30.Q G H Inst_LUT4AB_switch_matrix.M_AD
+ Inst_LUT4AB_switch_matrix.M_EF Inst_LUT4AB_ConfigMem.Inst_frame11_bit31.Q _0839_
+ VPWR VGND sg13g2_mux4_1
XFILLER_45_20 VPWR VGND sg13g2_fill_2
XFILLER_31_339 VPWR VGND sg13g2_fill_1
XANTENNA_7 VPWR VGND EE4END[7] sg13g2_antennanp
X_2120_ _0766_ Inst_LUT4AB_ConfigMem.Inst_frame2_bit26.Q Inst_LUT4AB_switch_matrix.M_AD
+ VPWR VGND sg13g2_nand2_1
X_2051_ Inst_LUT4AB_ConfigMem.Inst_frame2_bit25.Q VPWR _0703_ VGND _0699_ _0701_ sg13g2_o21ai_1
XFILLER_19_141 VPWR VGND sg13g2_fill_1
X_1835_ _0496_ Inst_LF_LUT4c_frame_config_dffesr.LUT_flop Inst_LF_LUT4c_frame_config_dffesr.c_out_mux
+ F VPWR VGND sg13g2_mux2_1
X_2953_ FrameData[10] FrameStrobe[2] Inst_LUT4AB_ConfigMem.Inst_frame2_bit10.Q VPWR
+ VGND sg13g2_dlhq_1
X_1904_ Inst_LUT4AB_ConfigMem.Inst_frame8_bit3.Q VPWR _0563_ VGND Inst_LUT4AB_ConfigMem.Inst_frame8_bit2.Q
+ _0538_ sg13g2_o21ai_1
X_2884_ FrameData[5] FrameStrobe[4] Inst_LUT4AB_ConfigMem.Inst_frame4_bit5.Q VPWR
+ VGND sg13g2_dlhq_1
X_1766_ _0429_ VPWR _0430_ VGND Inst_LUT4AB_ConfigMem.Inst_frame5_bit9.Q _0426_ sg13g2_o21ai_1
X_1697_ Inst_LUT4AB_ConfigMem.Inst_frame0_bit3.Q VPWR _0363_ VGND _1023_ Inst_LUT4AB_ConfigMem.Inst_frame0_bit2.Q
+ sg13g2_o21ai_1
X_2318_ _0944_ Inst_LUT4AB_ConfigMem.Inst_frame13_bit11.Q _1066_ VPWR VGND sg13g2_nand2_1
X_2249_ Inst_LUT4AB_ConfigMem.Inst_frame11_bit1.Q N1END[0] W1END[0] E1END[0] B Inst_LUT4AB_ConfigMem.Inst_frame11_bit0.Q
+ _0884_ VPWR VGND sg13g2_mux4_1
X_3298_ WW4END[10] WW4BEG[6] VPWR VGND sg13g2_buf_1
XFILLER_25_155 VPWR VGND sg13g2_fill_2
XFILLER_31_22 VPWR VGND sg13g2_fill_1
XFILLER_48_236 VPWR VGND sg13g2_fill_1
X_1551_ Inst_LUT4AB_ConfigMem.Inst_frame4_bit16.Q _0222_ _0223_ VPWR VGND sg13g2_nor2b_1
X_1620_ VGND VPWR _1041_ _0289_ _0290_ _0288_ sg13g2_a21oi_1
X_1482_ VGND VPWR Inst_LUT4AB_ConfigMem.Inst_frame2_bit2.Q _1051_ _0156_ _0155_ sg13g2_a21oi_1
X_3152_ FrameStrobe[17] FrameStrobe_O[17] VPWR VGND sg13g2_buf_1
X_3221_ S2MID[2] S2BEGb[2] VPWR VGND sg13g2_buf_1
X_2103_ _0749_ _0750_ Inst_LUT4AB_ConfigMem.Inst_frame8_bit25.Q _0751_ VPWR VGND sg13g2_nand3_1
X_3083_ E6END[10] E6BEG[8] VPWR VGND sg13g2_buf_1
X_2034_ _0687_ _0684_ _0682_ _0688_ VPWR VGND sg13g2_a21o_1
X_1818_ VGND VPWR Inst_LUT4AB_ConfigMem.Inst_frame9_bit21.Q _0478_ _0480_ Inst_LF_LUT4c_frame_config_dffesr.c_I0mux
+ sg13g2_a21oi_1
X_2867_ FrameData[20] FrameStrobe[5] Inst_LUT4AB_ConfigMem.Inst_frame5_bit20.Q VPWR
+ VGND sg13g2_dlhq_1
X_2936_ FrameData[25] FrameStrobe[3] Inst_LUT4AB_ConfigMem.Inst_frame3_bit25.Q VPWR
+ VGND sg13g2_dlhq_1
X_2798_ FrameData[15] FrameStrobe[7] Inst_LUT4AB_ConfigMem.Inst_frame7_bit15.Q VPWR
+ VGND sg13g2_dlhq_1
X_1749_ Inst_LUT4AB_ConfigMem.Inst_frame1_bit4.Q VPWR _0414_ VGND Inst_LUT4AB_ConfigMem.Inst_frame1_bit3.Q
+ _0411_ sg13g2_o21ai_1
XFILLER_45_206 VPWR VGND sg13g2_fill_2
XFILLER_32_412 VPWR VGND sg13g2_fill_2
X_2652_ FrameData[29] FrameStrobe[12] Inst_LUT4AB_ConfigMem.Inst_frame12_bit29.Q VPWR
+ VGND sg13g2_dlhq_1