*SPEF "ieee 1481-1999"
*DESIGN "IHP_SRAM"
*DATE "12:56:50 Wednesday July 30, 2025"
*VENDOR "The OpenROAD Project"
*PROGRAM "OpenROAD"
*VERSION "341650e72dad0dc8571822ff8c5d9c5e365327f7"
*DESIGN_FLOW "NAME_SCOPE LOCAL" "PIN_CAP NONE"
*DIVIDER /
*DELIMITER :
*BUS_DELIMITER []
*T_UNIT 1 NS
*C_UNIT 1 PF
*R_UNIT 1 OHM
*L_UNIT 1 HENRY

*NAME_MAP
*1 ADDR_SRAM0
*2 ADDR_SRAM1
*3 ADDR_SRAM2
*4 ADDR_SRAM3
*5 ADDR_SRAM4
*6 ADDR_SRAM5
*7 ADDR_SRAM6
*8 ADDR_SRAM7
*9 ADDR_SRAM8
*10 ADDR_SRAM9
*11 BM_SRAM0
*12 BM_SRAM1
*13 BM_SRAM10
*14 BM_SRAM11
*15 BM_SRAM12
*16 BM_SRAM13
*17 BM_SRAM14
*18 BM_SRAM15
*19 BM_SRAM16
*20 BM_SRAM17
*21 BM_SRAM18
*22 BM_SRAM19
*23 BM_SRAM2
*24 BM_SRAM20
*25 BM_SRAM21
*26 BM_SRAM22
*27 BM_SRAM23
*28 BM_SRAM24
*29 BM_SRAM25
*30 BM_SRAM26
*31 BM_SRAM27
*32 BM_SRAM28
*33 BM_SRAM29
*34 BM_SRAM3
*35 BM_SRAM30
*36 BM_SRAM31
*37 BM_SRAM4
*38 BM_SRAM5
*39 BM_SRAM6
*40 BM_SRAM7
*41 BM_SRAM8
*42 BM_SRAM9
*43 CLK_SRAM
*44 CONFIGURED_top
*45 DIN_SRAM0
*46 DIN_SRAM1
*47 DIN_SRAM10
*48 DIN_SRAM11
*49 DIN_SRAM12
*50 DIN_SRAM13
*51 DIN_SRAM14
*52 DIN_SRAM15
*53 DIN_SRAM16
*54 DIN_SRAM17
*55 DIN_SRAM18
*56 DIN_SRAM19
*57 DIN_SRAM2
*58 DIN_SRAM20
*59 DIN_SRAM21
*60 DIN_SRAM22
*61 DIN_SRAM23
*62 DIN_SRAM24
*63 DIN_SRAM25
*64 DIN_SRAM26
*65 DIN_SRAM27
*66 DIN_SRAM28
*67 DIN_SRAM29
*68 DIN_SRAM3
*69 DIN_SRAM30
*70 DIN_SRAM31
*71 DIN_SRAM4
*72 DIN_SRAM5
*73 DIN_SRAM6
*74 DIN_SRAM7
*75 DIN_SRAM8
*76 DIN_SRAM9
*77 DOUT_SRAM0
*78 DOUT_SRAM1
*79 DOUT_SRAM10
*80 DOUT_SRAM11
*81 DOUT_SRAM12
*82 DOUT_SRAM13
*83 DOUT_SRAM14
*84 DOUT_SRAM15
*85 DOUT_SRAM16
*86 DOUT_SRAM17
*87 DOUT_SRAM18
*88 DOUT_SRAM19
*89 DOUT_SRAM2
*90 DOUT_SRAM20
*91 DOUT_SRAM21
*92 DOUT_SRAM22
*93 DOUT_SRAM23
*94 DOUT_SRAM24
*95 DOUT_SRAM25
*96 DOUT_SRAM26
*97 DOUT_SRAM27
*98 DOUT_SRAM28
*99 DOUT_SRAM29
*100 DOUT_SRAM3
*101 DOUT_SRAM30
*102 DOUT_SRAM31
*103 DOUT_SRAM4
*104 DOUT_SRAM5
*105 DOUT_SRAM6
*106 DOUT_SRAM7
*107 DOUT_SRAM8
*108 DOUT_SRAM9
*109 MEN_SRAM
*110 REN_SRAM
*111 TIE_HIGH_SRAM
*112 TIE_LOW_SRAM
*113 Tile_X0Y0_E1END[0]
*114 Tile_X0Y0_E1END[1]
*115 Tile_X0Y0_E1END[2]
*116 Tile_X0Y0_E1END[3]
*117 Tile_X0Y0_E2END[0]
*118 Tile_X0Y0_E2END[1]
*119 Tile_X0Y0_E2END[2]
*120 Tile_X0Y0_E2END[3]
*121 Tile_X0Y0_E2END[4]
*122 Tile_X0Y0_E2END[5]
*123 Tile_X0Y0_E2END[6]
*124 Tile_X0Y0_E2END[7]
*125 Tile_X0Y0_E2MID[0]
*126 Tile_X0Y0_E2MID[1]
*127 Tile_X0Y0_E2MID[2]
*128 Tile_X0Y0_E2MID[3]
*129 Tile_X0Y0_E2MID[4]
*130 Tile_X0Y0_E2MID[5]
*131 Tile_X0Y0_E2MID[6]
*132 Tile_X0Y0_E2MID[7]
*133 Tile_X0Y0_E6END[0]
*134 Tile_X0Y0_E6END[10]
*135 Tile_X0Y0_E6END[11]
*136 Tile_X0Y0_E6END[1]
*137 Tile_X0Y0_E6END[2]
*138 Tile_X0Y0_E6END[3]
*139 Tile_X0Y0_E6END[4]
*140 Tile_X0Y0_E6END[5]
*141 Tile_X0Y0_E6END[6]
*142 Tile_X0Y0_E6END[7]
*143 Tile_X0Y0_E6END[8]
*144 Tile_X0Y0_E6END[9]
*145 Tile_X0Y0_EE4END[0]
*146 Tile_X0Y0_EE4END[10]
*147 Tile_X0Y0_EE4END[11]
*148 Tile_X0Y0_EE4END[12]
*149 Tile_X0Y0_EE4END[13]
*150 Tile_X0Y0_EE4END[14]
*151 Tile_X0Y0_EE4END[15]
*152 Tile_X0Y0_EE4END[1]
*153 Tile_X0Y0_EE4END[2]
*154 Tile_X0Y0_EE4END[3]
*155 Tile_X0Y0_EE4END[4]
*156 Tile_X0Y0_EE4END[5]
*157 Tile_X0Y0_EE4END[6]
*158 Tile_X0Y0_EE4END[7]
*159 Tile_X0Y0_EE4END[8]
*160 Tile_X0Y0_EE4END[9]
*161 Tile_X0Y0_FrameData[0]
*162 Tile_X0Y0_FrameData[10]
*163 Tile_X0Y0_FrameData[11]
*164 Tile_X0Y0_FrameData[12]
*165 Tile_X0Y0_FrameData[13]
*166 Tile_X0Y0_FrameData[14]
*167 Tile_X0Y0_FrameData[15]
*168 Tile_X0Y0_FrameData[16]
*169 Tile_X0Y0_FrameData[17]
*170 Tile_X0Y0_FrameData[18]
*171 Tile_X0Y0_FrameData[19]
*172 Tile_X0Y0_FrameData[1]
*173 Tile_X0Y0_FrameData[20]
*174 Tile_X0Y0_FrameData[21]
*175 Tile_X0Y0_FrameData[22]
*176 Tile_X0Y0_FrameData[23]
*177 Tile_X0Y0_FrameData[24]
*178 Tile_X0Y0_FrameData[25]
*179 Tile_X0Y0_FrameData[26]
*180 Tile_X0Y0_FrameData[27]
*181 Tile_X0Y0_FrameData[28]
*182 Tile_X0Y0_FrameData[29]
*183 Tile_X0Y0_FrameData[2]
*184 Tile_X0Y0_FrameData[30]
*185 Tile_X0Y0_FrameData[31]
*186 Tile_X0Y0_FrameData[3]
*187 Tile_X0Y0_FrameData[4]
*188 Tile_X0Y0_FrameData[5]
*189 Tile_X0Y0_FrameData[6]
*190 Tile_X0Y0_FrameData[7]
*191 Tile_X0Y0_FrameData[8]
*192 Tile_X0Y0_FrameData[9]
*193 Tile_X0Y0_FrameData_O[0]
*194 Tile_X0Y0_FrameData_O[10]
*195 Tile_X0Y0_FrameData_O[11]
*196 Tile_X0Y0_FrameData_O[12]
*197 Tile_X0Y0_FrameData_O[13]
*198 Tile_X0Y0_FrameData_O[14]
*199 Tile_X0Y0_FrameData_O[15]
*200 Tile_X0Y0_FrameData_O[16]
*201 Tile_X0Y0_FrameData_O[17]
*202 Tile_X0Y0_FrameData_O[18]
*203 Tile_X0Y0_FrameData_O[19]
*204 Tile_X0Y0_FrameData_O[1]
*205 Tile_X0Y0_FrameData_O[20]
*206 Tile_X0Y0_FrameData_O[21]
*207 Tile_X0Y0_FrameData_O[22]
*208 Tile_X0Y0_FrameData_O[23]
*209 Tile_X0Y0_FrameData_O[24]
*210 Tile_X0Y0_FrameData_O[25]
*211 Tile_X0Y0_FrameData_O[26]
*212 Tile_X0Y0_FrameData_O[27]
*213 Tile_X0Y0_FrameData_O[28]
*214 Tile_X0Y0_FrameData_O[29]
*215 Tile_X0Y0_FrameData_O[2]
*216 Tile_X0Y0_FrameData_O[30]
*217 Tile_X0Y0_FrameData_O[31]
*218 Tile_X0Y0_FrameData_O[3]
*219 Tile_X0Y0_FrameData_O[4]
*220 Tile_X0Y0_FrameData_O[5]
*221 Tile_X0Y0_FrameData_O[6]
*222 Tile_X0Y0_FrameData_O[7]
*223 Tile_X0Y0_FrameData_O[8]
*224 Tile_X0Y0_FrameData_O[9]
*225 Tile_X0Y0_FrameStrobe_O[0]
*226 Tile_X0Y0_FrameStrobe_O[10]
*227 Tile_X0Y0_FrameStrobe_O[11]
*228 Tile_X0Y0_FrameStrobe_O[12]
*229 Tile_X0Y0_FrameStrobe_O[13]
*230 Tile_X0Y0_FrameStrobe_O[14]
*231 Tile_X0Y0_FrameStrobe_O[15]
*232 Tile_X0Y0_FrameStrobe_O[16]
*233 Tile_X0Y0_FrameStrobe_O[17]
*234 Tile_X0Y0_FrameStrobe_O[18]
*235 Tile_X0Y0_FrameStrobe_O[19]
*236 Tile_X0Y0_FrameStrobe_O[1]
*237 Tile_X0Y0_FrameStrobe_O[2]
*238 Tile_X0Y0_FrameStrobe_O[3]
*239 Tile_X0Y0_FrameStrobe_O[4]
*240 Tile_X0Y0_FrameStrobe_O[5]
*241 Tile_X0Y0_FrameStrobe_O[6]
*242 Tile_X0Y0_FrameStrobe_O[7]
*243 Tile_X0Y0_FrameStrobe_O[8]
*244 Tile_X0Y0_FrameStrobe_O[9]
*245 Tile_X0Y0_N1BEG[0]
*246 Tile_X0Y0_N1BEG[1]
*247 Tile_X0Y0_N1BEG[2]
*248 Tile_X0Y0_N1BEG[3]
*249 Tile_X0Y0_N2BEG[0]
*250 Tile_X0Y0_N2BEG[1]
*251 Tile_X0Y0_N2BEG[2]
*252 Tile_X0Y0_N2BEG[3]
*253 Tile_X0Y0_N2BEG[4]
*254 Tile_X0Y0_N2BEG[5]
*255 Tile_X0Y0_N2BEG[6]
*256 Tile_X0Y0_N2BEG[7]
*257 Tile_X0Y0_N2BEGb[0]
*258 Tile_X0Y0_N2BEGb[1]
*259 Tile_X0Y0_N2BEGb[2]
*260 Tile_X0Y0_N2BEGb[3]
*261 Tile_X0Y0_N2BEGb[4]
*262 Tile_X0Y0_N2BEGb[5]
*263 Tile_X0Y0_N2BEGb[6]
*264 Tile_X0Y0_N2BEGb[7]
*265 Tile_X0Y0_N4BEG[0]
*266 Tile_X0Y0_N4BEG[10]
*267 Tile_X0Y0_N4BEG[11]
*268 Tile_X0Y0_N4BEG[12]
*269 Tile_X0Y0_N4BEG[13]
*270 Tile_X0Y0_N4BEG[14]
*271 Tile_X0Y0_N4BEG[15]
*272 Tile_X0Y0_N4BEG[1]
*273 Tile_X0Y0_N4BEG[2]
*274 Tile_X0Y0_N4BEG[3]
*275 Tile_X0Y0_N4BEG[4]
*276 Tile_X0Y0_N4BEG[5]
*277 Tile_X0Y0_N4BEG[6]
*278 Tile_X0Y0_N4BEG[7]
*279 Tile_X0Y0_N4BEG[8]
*280 Tile_X0Y0_N4BEG[9]
*281 Tile_X0Y0_S1END[0]
*282 Tile_X0Y0_S1END[1]
*283 Tile_X0Y0_S1END[2]
*284 Tile_X0Y0_S1END[3]
*285 Tile_X0Y0_S2END[0]
*286 Tile_X0Y0_S2END[1]
*287 Tile_X0Y0_S2END[2]
*288 Tile_X0Y0_S2END[3]
*289 Tile_X0Y0_S2END[4]
*290 Tile_X0Y0_S2END[5]
*291 Tile_X0Y0_S2END[6]
*292 Tile_X0Y0_S2END[7]
*293 Tile_X0Y0_S2MID[0]
*294 Tile_X0Y0_S2MID[1]
*295 Tile_X0Y0_S2MID[2]
*296 Tile_X0Y0_S2MID[3]
*297 Tile_X0Y0_S2MID[4]
*298 Tile_X0Y0_S2MID[5]
*299 Tile_X0Y0_S2MID[6]
*300 Tile_X0Y0_S2MID[7]
*301 Tile_X0Y0_S4END[0]
*302 Tile_X0Y0_S4END[10]
*303 Tile_X0Y0_S4END[11]
*304 Tile_X0Y0_S4END[12]
*305 Tile_X0Y0_S4END[13]
*306 Tile_X0Y0_S4END[14]
*307 Tile_X0Y0_S4END[15]
*308 Tile_X0Y0_S4END[1]
*309 Tile_X0Y0_S4END[2]
*310 Tile_X0Y0_S4END[3]
*311 Tile_X0Y0_S4END[4]
*312 Tile_X0Y0_S4END[5]
*313 Tile_X0Y0_S4END[6]
*314 Tile_X0Y0_S4END[7]
*315 Tile_X0Y0_S4END[8]
*316 Tile_X0Y0_S4END[9]
*317 Tile_X0Y0_UserCLKo
*318 Tile_X0Y0_W1BEG[0]
*319 Tile_X0Y0_W1BEG[1]
*320 Tile_X0Y0_W1BEG[2]
*321 Tile_X0Y0_W1BEG[3]
*322 Tile_X0Y0_W2BEG[0]
*323 Tile_X0Y0_W2BEG[1]
*324 Tile_X0Y0_W2BEG[2]
*325 Tile_X0Y0_W2BEG[3]
*326 Tile_X0Y0_W2BEG[4]
*327 Tile_X0Y0_W2BEG[5]
*328 Tile_X0Y0_W2BEG[6]
*329 Tile_X0Y0_W2BEG[7]
*330 Tile_X0Y0_W2BEGb[0]
*331 Tile_X0Y0_W2BEGb[1]
*332 Tile_X0Y0_W2BEGb[2]
*333 Tile_X0Y0_W2BEGb[3]
*334 Tile_X0Y0_W2BEGb[4]
*335 Tile_X0Y0_W2BEGb[5]
*336 Tile_X0Y0_W2BEGb[6]
*337 Tile_X0Y0_W2BEGb[7]
*338 Tile_X0Y0_W6BEG[0]
*339 Tile_X0Y0_W6BEG[10]
*340 Tile_X0Y0_W6BEG[11]
*341 Tile_X0Y0_W6BEG[1]
*342 Tile_X0Y0_W6BEG[2]
*343 Tile_X0Y0_W6BEG[3]
*344 Tile_X0Y0_W6BEG[4]
*345 Tile_X0Y0_W6BEG[5]
*346 Tile_X0Y0_W6BEG[6]
*347 Tile_X0Y0_W6BEG[7]
*348 Tile_X0Y0_W6BEG[8]
*349 Tile_X0Y0_W6BEG[9]
*350 Tile_X0Y0_WW4BEG[0]
*351 Tile_X0Y0_WW4BEG[10]
*352 Tile_X0Y0_WW4BEG[11]
*353 Tile_X0Y0_WW4BEG[12]
*354 Tile_X0Y0_WW4BEG[13]
*355 Tile_X0Y0_WW4BEG[14]
*356 Tile_X0Y0_WW4BEG[15]
*357 Tile_X0Y0_WW4BEG[1]
*358 Tile_X0Y0_WW4BEG[2]
*359 Tile_X0Y0_WW4BEG[3]
*360 Tile_X0Y0_WW4BEG[4]
*361 Tile_X0Y0_WW4BEG[5]
*362 Tile_X0Y0_WW4BEG[6]
*363 Tile_X0Y0_WW4BEG[7]
*364 Tile_X0Y0_WW4BEG[8]
*365 Tile_X0Y0_WW4BEG[9]
*366 Tile_X0Y1_E1END[0]
*367 Tile_X0Y1_E1END[1]
*368 Tile_X0Y1_E1END[2]
*369 Tile_X0Y1_E1END[3]
*370 Tile_X0Y1_E2END[0]
*371 Tile_X0Y1_E2END[1]
*372 Tile_X0Y1_E2END[2]
*373 Tile_X0Y1_E2END[3]
*374 Tile_X0Y1_E2END[4]
*375 Tile_X0Y1_E2END[5]
*376 Tile_X0Y1_E2END[6]
*377 Tile_X0Y1_E2END[7]
*378 Tile_X0Y1_E2MID[0]
*379 Tile_X0Y1_E2MID[1]
*380 Tile_X0Y1_E2MID[2]
*381 Tile_X0Y1_E2MID[3]
*382 Tile_X0Y1_E2MID[4]
*383 Tile_X0Y1_E2MID[5]
*384 Tile_X0Y1_E2MID[6]
*385 Tile_X0Y1_E2MID[7]
*386 Tile_X0Y1_E6END[0]
*387 Tile_X0Y1_E6END[10]
*388 Tile_X0Y1_E6END[11]
*389 Tile_X0Y1_E6END[1]
*390 Tile_X0Y1_E6END[2]
*391 Tile_X0Y1_E6END[3]
*392 Tile_X0Y1_E6END[4]
*393 Tile_X0Y1_E6END[5]
*394 Tile_X0Y1_E6END[6]
*395 Tile_X0Y1_E6END[7]
*396 Tile_X0Y1_E6END[8]
*397 Tile_X0Y1_E6END[9]
*398 Tile_X0Y1_EE4END[0]
*399 Tile_X0Y1_EE4END[10]
*400 Tile_X0Y1_EE4END[11]
*401 Tile_X0Y1_EE4END[12]
*402 Tile_X0Y1_EE4END[13]
*403 Tile_X0Y1_EE4END[14]
*404 Tile_X0Y1_EE4END[15]
*405 Tile_X0Y1_EE4END[1]
*406 Tile_X0Y1_EE4END[2]
*407 Tile_X0Y1_EE4END[3]
*408 Tile_X0Y1_EE4END[4]
*409 Tile_X0Y1_EE4END[5]
*410 Tile_X0Y1_EE4END[6]
*411 Tile_X0Y1_EE4END[7]
*412 Tile_X0Y1_EE4END[8]
*413 Tile_X0Y1_EE4END[9]
*414 Tile_X0Y1_FrameData[0]
*415 Tile_X0Y1_FrameData[10]
*416 Tile_X0Y1_FrameData[11]
*417 Tile_X0Y1_FrameData[12]
*418 Tile_X0Y1_FrameData[13]
*419 Tile_X0Y1_FrameData[14]
*420 Tile_X0Y1_FrameData[15]
*421 Tile_X0Y1_FrameData[16]
*422 Tile_X0Y1_FrameData[17]
*423 Tile_X0Y1_FrameData[18]
*424 Tile_X0Y1_FrameData[19]
*425 Tile_X0Y1_FrameData[1]
*426 Tile_X0Y1_FrameData[20]
*427 Tile_X0Y1_FrameData[21]
*428 Tile_X0Y1_FrameData[22]
*429 Tile_X0Y1_FrameData[23]
*430 Tile_X0Y1_FrameData[24]
*431 Tile_X0Y1_FrameData[25]
*432 Tile_X0Y1_FrameData[26]
*433 Tile_X0Y1_FrameData[27]
*434 Tile_X0Y1_FrameData[28]
*435 Tile_X0Y1_FrameData[29]
*436 Tile_X0Y1_FrameData[2]
*437 Tile_X0Y1_FrameData[30]
*438 Tile_X0Y1_FrameData[31]
*439 Tile_X0Y1_FrameData[3]
*440 Tile_X0Y1_FrameData[4]
*441 Tile_X0Y1_FrameData[5]
*442 Tile_X0Y1_FrameData[6]
*443 Tile_X0Y1_FrameData[7]
*444 Tile_X0Y1_FrameData[8]
*445 Tile_X0Y1_FrameData[9]
*446 Tile_X0Y1_FrameData_O[0]
*447 Tile_X0Y1_FrameData_O[10]
*448 Tile_X0Y1_FrameData_O[11]
*449 Tile_X0Y1_FrameData_O[12]
*450 Tile_X0Y1_FrameData_O[13]
*451 Tile_X0Y1_FrameData_O[14]
*452 Tile_X0Y1_FrameData_O[15]
*453 Tile_X0Y1_FrameData_O[16]
*454 Tile_X0Y1_FrameData_O[17]
*455 Tile_X0Y1_FrameData_O[18]
*456 Tile_X0Y1_FrameData_O[19]
*457 Tile_X0Y1_FrameData_O[1]
*458 Tile_X0Y1_FrameData_O[20]
*459 Tile_X0Y1_FrameData_O[21]
*460 Tile_X0Y1_FrameData_O[22]
*461 Tile_X0Y1_FrameData_O[23]
*462 Tile_X0Y1_FrameData_O[24]
*463 Tile_X0Y1_FrameData_O[25]
*464 Tile_X0Y1_FrameData_O[26]
*465 Tile_X0Y1_FrameData_O[27]
*466 Tile_X0Y1_FrameData_O[28]
*467 Tile_X0Y1_FrameData_O[29]
*468 Tile_X0Y1_FrameData_O[2]
*469 Tile_X0Y1_FrameData_O[30]
*470 Tile_X0Y1_FrameData_O[31]
*471 Tile_X0Y1_FrameData_O[3]
*472 Tile_X0Y1_FrameData_O[4]
*473 Tile_X0Y1_FrameData_O[5]
*474 Tile_X0Y1_FrameData_O[6]
*475 Tile_X0Y1_FrameData_O[7]
*476 Tile_X0Y1_FrameData_O[8]
*477 Tile_X0Y1_FrameData_O[9]
*478 Tile_X0Y1_FrameStrobe[0]
*479 Tile_X0Y1_FrameStrobe[10]
*480 Tile_X0Y1_FrameStrobe[11]
*481 Tile_X0Y1_FrameStrobe[12]
*482 Tile_X0Y1_FrameStrobe[13]
*483 Tile_X0Y1_FrameStrobe[14]
*484 Tile_X0Y1_FrameStrobe[15]
*485 Tile_X0Y1_FrameStrobe[16]
*486 Tile_X0Y1_FrameStrobe[17]
*487 Tile_X0Y1_FrameStrobe[18]
*488 Tile_X0Y1_FrameStrobe[19]
*489 Tile_X0Y1_FrameStrobe[1]
*490 Tile_X0Y1_FrameStrobe[2]
*491 Tile_X0Y1_FrameStrobe[3]
*492 Tile_X0Y1_FrameStrobe[4]
*493 Tile_X0Y1_FrameStrobe[5]
*494 Tile_X0Y1_FrameStrobe[6]
*495 Tile_X0Y1_FrameStrobe[7]
*496 Tile_X0Y1_FrameStrobe[8]
*497 Tile_X0Y1_FrameStrobe[9]
*498 Tile_X0Y1_N1END[0]
*499 Tile_X0Y1_N1END[1]
*500 Tile_X0Y1_N1END[2]
*501 Tile_X0Y1_N1END[3]
*502 Tile_X0Y1_N2END[0]
*503 Tile_X0Y1_N2END[1]
*504 Tile_X0Y1_N2END[2]
*505 Tile_X0Y1_N2END[3]
*506 Tile_X0Y1_N2END[4]
*507 Tile_X0Y1_N2END[5]
*508 Tile_X0Y1_N2END[6]
*509 Tile_X0Y1_N2END[7]
*510 Tile_X0Y1_N2MID[0]
*511 Tile_X0Y1_N2MID[1]
*512 Tile_X0Y1_N2MID[2]
*513 Tile_X0Y1_N2MID[3]
*514 Tile_X0Y1_N2MID[4]
*515 Tile_X0Y1_N2MID[5]
*516 Tile_X0Y1_N2MID[6]
*517 Tile_X0Y1_N2MID[7]
*518 Tile_X0Y1_N4END[0]
*519 Tile_X0Y1_N4END[10]
*520 Tile_X0Y1_N4END[11]
*521 Tile_X0Y1_N4END[12]
*522 Tile_X0Y1_N4END[13]
*523 Tile_X0Y1_N4END[14]
*524 Tile_X0Y1_N4END[15]
*525 Tile_X0Y1_N4END[1]
*526 Tile_X0Y1_N4END[2]
*527 Tile_X0Y1_N4END[3]
*528 Tile_X0Y1_N4END[4]
*529 Tile_X0Y1_N4END[5]
*530 Tile_X0Y1_N4END[6]
*531 Tile_X0Y1_N4END[7]
*532 Tile_X0Y1_N4END[8]
*533 Tile_X0Y1_N4END[9]
*534 Tile_X0Y1_S1BEG[0]
*535 Tile_X0Y1_S1BEG[1]
*536 Tile_X0Y1_S1BEG[2]
*537 Tile_X0Y1_S1BEG[3]
*538 Tile_X0Y1_S2BEG[0]
*539 Tile_X0Y1_S2BEG[1]
*540 Tile_X0Y1_S2BEG[2]
*541 Tile_X0Y1_S2BEG[3]
*542 Tile_X0Y1_S2BEG[4]
*543 Tile_X0Y1_S2BEG[5]
*544 Tile_X0Y1_S2BEG[6]
*545 Tile_X0Y1_S2BEG[7]
*546 Tile_X0Y1_S2BEGb[0]
*547 Tile_X0Y1_S2BEGb[1]
*548 Tile_X0Y1_S2BEGb[2]
*549 Tile_X0Y1_S2BEGb[3]
*550 Tile_X0Y1_S2BEGb[4]
*551 Tile_X0Y1_S2BEGb[5]
*552 Tile_X0Y1_S2BEGb[6]
*553 Tile_X0Y1_S2BEGb[7]
*554 Tile_X0Y1_S4BEG[0]
*555 Tile_X0Y1_S4BEG[10]
*556 Tile_X0Y1_S4BEG[11]
*557 Tile_X0Y1_S4BEG[12]
*558 Tile_X0Y1_S4BEG[13]
*559 Tile_X0Y1_S4BEG[14]
*560 Tile_X0Y1_S4BEG[15]
*561 Tile_X0Y1_S4BEG[1]
*562 Tile_X0Y1_S4BEG[2]
*563 Tile_X0Y1_S4BEG[3]
*564 Tile_X0Y1_S4BEG[4]
*565 Tile_X0Y1_S4BEG[5]
*566 Tile_X0Y1_S4BEG[6]
*567 Tile_X0Y1_S4BEG[7]
*568 Tile_X0Y1_S4BEG[8]
*569 Tile_X0Y1_S4BEG[9]
*570 Tile_X0Y1_UserCLK
*571 Tile_X0Y1_W1BEG[0]
*572 Tile_X0Y1_W1BEG[1]
*573 Tile_X0Y1_W1BEG[2]
*574 Tile_X0Y1_W1BEG[3]
*575 Tile_X0Y1_W2BEG[0]
*576 Tile_X0Y1_W2BEG[1]
*577 Tile_X0Y1_W2BEG[2]
*578 Tile_X0Y1_W2BEG[3]
*579 Tile_X0Y1_W2BEG[4]
*580 Tile_X0Y1_W2BEG[5]
*581 Tile_X0Y1_W2BEG[6]
*582 Tile_X0Y1_W2BEG[7]
*583 Tile_X0Y1_W2BEGb[0]
*584 Tile_X0Y1_W2BEGb[1]
*585 Tile_X0Y1_W2BEGb[2]
*586 Tile_X0Y1_W2BEGb[3]
*587 Tile_X0Y1_W2BEGb[4]
*588 Tile_X0Y1_W2BEGb[5]
*589 Tile_X0Y1_W2BEGb[6]
*590 Tile_X0Y1_W2BEGb[7]
*591 Tile_X0Y1_W6BEG[0]
*592 Tile_X0Y1_W6BEG[10]
*593 Tile_X0Y1_W6BEG[11]
*594 Tile_X0Y1_W6BEG[1]
*595 Tile_X0Y1_W6BEG[2]
*596 Tile_X0Y1_W6BEG[3]
*597 Tile_X0Y1_W6BEG[4]
*598 Tile_X0Y1_W6BEG[5]
*599 Tile_X0Y1_W6BEG[6]
*600 Tile_X0Y1_W6BEG[7]
*601 Tile_X0Y1_W6BEG[8]
*602 Tile_X0Y1_W6BEG[9]
*603 Tile_X0Y1_WW4BEG[0]
*604 Tile_X0Y1_WW4BEG[10]
*605 Tile_X0Y1_WW4BEG[11]
*606 Tile_X0Y1_WW4BEG[12]
*607 Tile_X0Y1_WW4BEG[13]
*608 Tile_X0Y1_WW4BEG[14]
*609 Tile_X0Y1_WW4BEG[15]
*610 Tile_X0Y1_WW4BEG[1]
*611 Tile_X0Y1_WW4BEG[2]
*612 Tile_X0Y1_WW4BEG[3]
*613 Tile_X0Y1_WW4BEG[4]
*614 Tile_X0Y1_WW4BEG[5]
*615 Tile_X0Y1_WW4BEG[6]
*616 Tile_X0Y1_WW4BEG[7]
*617 Tile_X0Y1_WW4BEG[8]
*618 Tile_X0Y1_WW4BEG[9]
*621 WEN_SRAM
*622 Tile_X0Y0_IHP_SRAM_top\.Inst_IHP_SRAM_top_ConfigMem\.Inst_frame0_bit0\.Q
*623 Tile_X0Y0_IHP_SRAM_top\.Inst_IHP_SRAM_top_ConfigMem\.Inst_frame0_bit1\.Q
*624 Tile_X0Y0_IHP_SRAM_top\.Inst_IHP_SRAM_top_ConfigMem\.Inst_frame0_bit10\.Q
*625 Tile_X0Y0_IHP_SRAM_top\.Inst_IHP_SRAM_top_ConfigMem\.Inst_frame0_bit11\.Q
*626 Tile_X0Y0_IHP_SRAM_top\.Inst_IHP_SRAM_top_ConfigMem\.Inst_frame0_bit12\.Q
*627 Tile_X0Y0_IHP_SRAM_top\.Inst_IHP_SRAM_top_ConfigMem\.Inst_frame0_bit13\.Q
*628 Tile_X0Y0_IHP_SRAM_top\.Inst_IHP_SRAM_top_ConfigMem\.Inst_frame0_bit14\.Q
*629 Tile_X0Y0_IHP_SRAM_top\.Inst_IHP_SRAM_top_ConfigMem\.Inst_frame0_bit15\.Q
*630 Tile_X0Y0_IHP_SRAM_top\.Inst_IHP_SRAM_top_ConfigMem\.Inst_frame0_bit16\.Q
*631 Tile_X0Y0_IHP_SRAM_top\.Inst_IHP_SRAM_top_ConfigMem\.Inst_frame0_bit17\.Q
*632 Tile_X0Y0_IHP_SRAM_top\.Inst_IHP_SRAM_top_ConfigMem\.Inst_frame0_bit18\.Q
*633 Tile_X0Y0_IHP_SRAM_top\.Inst_IHP_SRAM_top_ConfigMem\.Inst_frame0_bit19\.Q
*634 Tile_X0Y0_IHP_SRAM_top\.Inst_IHP_SRAM_top_ConfigMem\.Inst_frame0_bit2\.Q
*635 Tile_X0Y0_IHP_SRAM_top\.Inst_IHP_SRAM_top_ConfigMem\.Inst_frame0_bit20\.Q
*636 Tile_X0Y0_IHP_SRAM_top\.Inst_IHP_SRAM_top_ConfigMem\.Inst_frame0_bit21\.Q
*637 Tile_X0Y0_IHP_SRAM_top\.Inst_IHP_SRAM_top_ConfigMem\.Inst_frame0_bit22\.Q
*638 Tile_X0Y0_IHP_SRAM_top\.Inst_IHP_SRAM_top_ConfigMem\.Inst_frame0_bit23\.Q
*639 Tile_X0Y0_IHP_SRAM_top\.Inst_IHP_SRAM_top_ConfigMem\.Inst_frame0_bit24\.Q
*640 Tile_X0Y0_IHP_SRAM_top\.Inst_IHP_SRAM_top_ConfigMem\.Inst_frame0_bit25\.Q
*641 Tile_X0Y0_IHP_SRAM_top\.Inst_IHP_SRAM_top_ConfigMem\.Inst_frame0_bit26\.Q
*642 Tile_X0Y0_IHP_SRAM_top\.Inst_IHP_SRAM_top_ConfigMem\.Inst_frame0_bit27\.Q
*643 Tile_X0Y0_IHP_SRAM_top\.Inst_IHP_SRAM_top_ConfigMem\.Inst_frame0_bit28\.Q
*644 Tile_X0Y0_IHP_SRAM_top\.Inst_IHP_SRAM_top_ConfigMem\.Inst_frame0_bit29\.Q
*645 Tile_X0Y0_IHP_SRAM_top\.Inst_IHP_SRAM_top_ConfigMem\.Inst_frame0_bit3\.Q
*646 Tile_X0Y0_IHP_SRAM_top\.Inst_IHP_SRAM_top_ConfigMem\.Inst_frame0_bit30\.Q
*647 Tile_X0Y0_IHP_SRAM_top\.Inst_IHP_SRAM_top_ConfigMem\.Inst_frame0_bit31\.Q
*648 Tile_X0Y0_IHP_SRAM_top\.Inst_IHP_SRAM_top_ConfigMem\.Inst_frame0_bit4\.Q
*649 Tile_X0Y0_IHP_SRAM_top\.Inst_IHP_SRAM_top_ConfigMem\.Inst_frame0_bit5\.Q
*650 Tile_X0Y0_IHP_SRAM_top\.Inst_IHP_SRAM_top_ConfigMem\.Inst_frame0_bit6\.Q
*651 Tile_X0Y0_IHP_SRAM_top\.Inst_IHP_SRAM_top_ConfigMem\.Inst_frame0_bit7\.Q
*652 Tile_X0Y0_IHP_SRAM_top\.Inst_IHP_SRAM_top_ConfigMem\.Inst_frame0_bit8\.Q
*653 Tile_X0Y0_IHP_SRAM_top\.Inst_IHP_SRAM_top_ConfigMem\.Inst_frame0_bit9\.Q
*654 Tile_X0Y0_IHP_SRAM_top\.Inst_IHP_SRAM_top_ConfigMem\.Inst_frame1_bit0\.Q
*655 Tile_X0Y0_IHP_SRAM_top\.Inst_IHP_SRAM_top_ConfigMem\.Inst_frame1_bit1\.Q
*656 Tile_X0Y0_IHP_SRAM_top\.Inst_IHP_SRAM_top_ConfigMem\.Inst_frame1_bit10\.Q
*657 Tile_X0Y0_IHP_SRAM_top\.Inst_IHP_SRAM_top_ConfigMem\.Inst_frame1_bit11\.Q
*658 Tile_X0Y0_IHP_SRAM_top\.Inst_IHP_SRAM_top_ConfigMem\.Inst_frame1_bit12\.Q
*659 Tile_X0Y0_IHP_SRAM_top\.Inst_IHP_SRAM_top_ConfigMem\.Inst_frame1_bit13\.Q
*660 Tile_X0Y0_IHP_SRAM_top\.Inst_IHP_SRAM_top_ConfigMem\.Inst_frame1_bit14\.Q
*661 Tile_X0Y0_IHP_SRAM_top\.Inst_IHP_SRAM_top_ConfigMem\.Inst_frame1_bit15\.Q
*662 Tile_X0Y0_IHP_SRAM_top\.Inst_IHP_SRAM_top_ConfigMem\.Inst_frame1_bit16\.Q
*663 Tile_X0Y0_IHP_SRAM_top\.Inst_IHP_SRAM_top_ConfigMem\.Inst_frame1_bit17\.Q
*664 Tile_X0Y0_IHP_SRAM_top\.Inst_IHP_SRAM_top_ConfigMem\.Inst_frame1_bit18\.Q
*665 Tile_X0Y0_IHP_SRAM_top\.Inst_IHP_SRAM_top_ConfigMem\.Inst_frame1_bit19\.Q
*666 Tile_X0Y0_IHP_SRAM_top\.Inst_IHP_SRAM_top_ConfigMem\.Inst_frame1_bit2\.Q
*667 Tile_X0Y0_IHP_SRAM_top\.Inst_IHP_SRAM_top_ConfigMem\.Inst_frame1_bit20\.Q
*668 Tile_X0Y0_IHP_SRAM_top\.Inst_IHP_SRAM_top_ConfigMem\.Inst_frame1_bit21\.Q
*669 Tile_X0Y0_IHP_SRAM_top\.Inst_IHP_SRAM_top_ConfigMem\.Inst_frame1_bit22\.Q
*670 Tile_X0Y0_IHP_SRAM_top\.Inst_IHP_SRAM_top_ConfigMem\.Inst_frame1_bit23\.Q
*671 Tile_X0Y0_IHP_SRAM_top\.Inst_IHP_SRAM_top_ConfigMem\.Inst_frame1_bit24\.Q
*672 Tile_X0Y0_IHP_SRAM_top\.Inst_IHP_SRAM_top_ConfigMem\.Inst_frame1_bit25\.Q
*673 Tile_X0Y0_IHP_SRAM_top\.Inst_IHP_SRAM_top_ConfigMem\.Inst_frame1_bit26\.Q
*674 Tile_X0Y0_IHP_SRAM_top\.Inst_IHP_SRAM_top_ConfigMem\.Inst_frame1_bit27\.Q
*675 Tile_X0Y0_IHP_SRAM_top\.Inst_IHP_SRAM_top_ConfigMem\.Inst_frame1_bit28\.Q
*676 Tile_X0Y0_IHP_SRAM_top\.Inst_IHP_SRAM_top_ConfigMem\.Inst_frame1_bit29\.Q
*677 Tile_X0Y0_IHP_SRAM_top\.Inst_IHP_SRAM_top_ConfigMem\.Inst_frame1_bit3\.Q
*678 Tile_X0Y0_IHP_SRAM_top\.Inst_IHP_SRAM_top_ConfigMem\.Inst_frame1_bit30\.Q
*679 Tile_X0Y0_IHP_SRAM_top\.Inst_IHP_SRAM_top_ConfigMem\.Inst_frame1_bit31\.Q
*680 Tile_X0Y0_IHP_SRAM_top\.Inst_IHP_SRAM_top_ConfigMem\.Inst_frame1_bit4\.Q
*681 Tile_X0Y0_IHP_SRAM_top\.Inst_IHP_SRAM_top_ConfigMem\.Inst_frame1_bit5\.Q
*682 Tile_X0Y0_IHP_SRAM_top\.Inst_IHP_SRAM_top_ConfigMem\.Inst_frame1_bit6\.Q
*683 Tile_X0Y0_IHP_SRAM_top\.Inst_IHP_SRAM_top_ConfigMem\.Inst_frame1_bit7\.Q
*684 Tile_X0Y0_IHP_SRAM_top\.Inst_IHP_SRAM_top_ConfigMem\.Inst_frame1_bit8\.Q
*685 Tile_X0Y0_IHP_SRAM_top\.Inst_IHP_SRAM_top_ConfigMem\.Inst_frame1_bit9\.Q
*686 Tile_X0Y0_IHP_SRAM_top\.Inst_IHP_SRAM_top_ConfigMem\.Inst_frame2_bit0\.Q
*687 Tile_X0Y0_IHP_SRAM_top\.Inst_IHP_SRAM_top_ConfigMem\.Inst_frame2_bit1\.Q
*688 Tile_X0Y0_IHP_SRAM_top\.Inst_IHP_SRAM_top_ConfigMem\.Inst_frame2_bit10\.Q
*689 Tile_X0Y0_IHP_SRAM_top\.Inst_IHP_SRAM_top_ConfigMem\.Inst_frame2_bit11\.Q
*690 Tile_X0Y0_IHP_SRAM_top\.Inst_IHP_SRAM_top_ConfigMem\.Inst_frame2_bit12\.Q
*691 Tile_X0Y0_IHP_SRAM_top\.Inst_IHP_SRAM_top_ConfigMem\.Inst_frame2_bit13\.Q
*692 Tile_X0Y0_IHP_SRAM_top\.Inst_IHP_SRAM_top_ConfigMem\.Inst_frame2_bit14\.Q
*693 Tile_X0Y0_IHP_SRAM_top\.Inst_IHP_SRAM_top_ConfigMem\.Inst_frame2_bit15\.Q
*694 Tile_X0Y0_IHP_SRAM_top\.Inst_IHP_SRAM_top_ConfigMem\.Inst_frame2_bit16\.Q
*695 Tile_X0Y0_IHP_SRAM_top\.Inst_IHP_SRAM_top_ConfigMem\.Inst_frame2_bit17\.Q
*696 Tile_X0Y0_IHP_SRAM_top\.Inst_IHP_SRAM_top_ConfigMem\.Inst_frame2_bit18\.Q
*697 Tile_X0Y0_IHP_SRAM_top\.Inst_IHP_SRAM_top_ConfigMem\.Inst_frame2_bit19\.Q
*698 Tile_X0Y0_IHP_SRAM_top\.Inst_IHP_SRAM_top_ConfigMem\.Inst_frame2_bit2\.Q
*699 Tile_X0Y0_IHP_SRAM_top\.Inst_IHP_SRAM_top_ConfigMem\.Inst_frame2_bit20\.Q
*700 Tile_X0Y0_IHP_SRAM_top\.Inst_IHP_SRAM_top_ConfigMem\.Inst_frame2_bit21\.Q
*701 Tile_X0Y0_IHP_SRAM_top\.Inst_IHP_SRAM_top_ConfigMem\.Inst_frame2_bit22\.Q
*702 Tile_X0Y0_IHP_SRAM_top\.Inst_IHP_SRAM_top_ConfigMem\.Inst_frame2_bit23\.Q
*703 Tile_X0Y0_IHP_SRAM_top\.Inst_IHP_SRAM_top_ConfigMem\.Inst_frame2_bit24\.Q
*704 Tile_X0Y0_IHP_SRAM_top\.Inst_IHP_SRAM_top_ConfigMem\.Inst_frame2_bit25\.Q
*705 Tile_X0Y0_IHP_SRAM_top\.Inst_IHP_SRAM_top_ConfigMem\.Inst_frame2_bit26\.Q
*706 Tile_X0Y0_IHP_SRAM_top\.Inst_IHP_SRAM_top_ConfigMem\.Inst_frame2_bit27\.Q
*707 Tile_X0Y0_IHP_SRAM_top\.Inst_IHP_SRAM_top_ConfigMem\.Inst_frame2_bit28\.Q
*708 Tile_X0Y0_IHP_SRAM_top\.Inst_IHP_SRAM_top_ConfigMem\.Inst_frame2_bit29\.Q
*709 Tile_X0Y0_IHP_SRAM_top\.Inst_IHP_SRAM_top_ConfigMem\.Inst_frame2_bit3\.Q
*710 Tile_X0Y0_IHP_SRAM_top\.Inst_IHP_SRAM_top_ConfigMem\.Inst_frame2_bit30\.Q
*711 Tile_X0Y0_IHP_SRAM_top\.Inst_IHP_SRAM_top_ConfigMem\.Inst_frame2_bit31\.Q
*712 Tile_X0Y0_IHP_SRAM_top\.Inst_IHP_SRAM_top_ConfigMem\.Inst_frame2_bit4\.Q
*713 Tile_X0Y0_IHP_SRAM_top\.Inst_IHP_SRAM_top_ConfigMem\.Inst_frame2_bit5\.Q
*714 Tile_X0Y0_IHP_SRAM_top\.Inst_IHP_SRAM_top_ConfigMem\.Inst_frame2_bit6\.Q
*715 Tile_X0Y0_IHP_SRAM_top\.Inst_IHP_SRAM_top_ConfigMem\.Inst_frame2_bit7\.Q
*716 Tile_X0Y0_IHP_SRAM_top\.Inst_IHP_SRAM_top_ConfigMem\.Inst_frame2_bit8\.Q
*717 Tile_X0Y0_IHP_SRAM_top\.Inst_IHP_SRAM_top_ConfigMem\.Inst_frame2_bit9\.Q
*718 Tile_X0Y0_IHP_SRAM_top\.Inst_IHP_SRAM_top_ConfigMem\.Inst_frame3_bit0\.Q
*719 Tile_X0Y0_IHP_SRAM_top\.Inst_IHP_SRAM_top_ConfigMem\.Inst_frame3_bit1\.Q
*720 Tile_X0Y0_IHP_SRAM_top\.Inst_IHP_SRAM_top_ConfigMem\.Inst_frame3_bit10\.Q
*721 Tile_X0Y0_IHP_SRAM_top\.Inst_IHP_SRAM_top_ConfigMem\.Inst_frame3_bit11\.Q
*722 Tile_X0Y0_IHP_SRAM_top\.Inst_IHP_SRAM_top_ConfigMem\.Inst_frame3_bit12\.Q
*723 Tile_X0Y0_IHP_SRAM_top\.Inst_IHP_SRAM_top_ConfigMem\.Inst_frame3_bit13\.Q
*724 Tile_X0Y0_IHP_SRAM_top\.Inst_IHP_SRAM_top_ConfigMem\.Inst_frame3_bit14\.Q
*725 Tile_X0Y0_IHP_SRAM_top\.Inst_IHP_SRAM_top_ConfigMem\.Inst_frame3_bit15\.Q
*726 Tile_X0Y0_IHP_SRAM_top\.Inst_IHP_SRAM_top_ConfigMem\.Inst_frame3_bit16\.Q
*727 Tile_X0Y0_IHP_SRAM_top\.Inst_IHP_SRAM_top_ConfigMem\.Inst_frame3_bit17\.Q
*728 Tile_X0Y0_IHP_SRAM_top\.Inst_IHP_SRAM_top_ConfigMem\.Inst_frame3_bit18\.Q
*729 Tile_X0Y0_IHP_SRAM_top\.Inst_IHP_SRAM_top_ConfigMem\.Inst_frame3_bit19\.Q
*730 Tile_X0Y0_IHP_SRAM_top\.Inst_IHP_SRAM_top_ConfigMem\.Inst_frame3_bit2\.Q
*731 Tile_X0Y0_IHP_SRAM_top\.Inst_IHP_SRAM_top_ConfigMem\.Inst_frame3_bit20\.Q
*732 Tile_X0Y0_IHP_SRAM_top\.Inst_IHP_SRAM_top_ConfigMem\.Inst_frame3_bit21\.Q
*733 Tile_X0Y0_IHP_SRAM_top\.Inst_IHP_SRAM_top_ConfigMem\.Inst_frame3_bit22\.Q
*734 Tile_X0Y0_IHP_SRAM_top\.Inst_IHP_SRAM_top_ConfigMem\.Inst_frame3_bit23\.Q
*735 Tile_X0Y0_IHP_SRAM_top\.Inst_IHP_SRAM_top_ConfigMem\.Inst_frame3_bit24\.Q
*736 Tile_X0Y0_IHP_SRAM_top\.Inst_IHP_SRAM_top_ConfigMem\.Inst_frame3_bit25\.Q
*737 Tile_X0Y0_IHP_SRAM_top\.Inst_IHP_SRAM_top_ConfigMem\.Inst_frame3_bit26\.Q
*738 Tile_X0Y0_IHP_SRAM_top\.Inst_IHP_SRAM_top_ConfigMem\.Inst_frame3_bit27\.Q
*739 Tile_X0Y0_IHP_SRAM_top\.Inst_IHP_SRAM_top_ConfigMem\.Inst_frame3_bit28\.Q
*740 Tile_X0Y0_IHP_SRAM_top\.Inst_IHP_SRAM_top_ConfigMem\.Inst_frame3_bit29\.Q
*741 Tile_X0Y0_IHP_SRAM_top\.Inst_IHP_SRAM_top_ConfigMem\.Inst_frame3_bit3\.Q
*742 Tile_X0Y0_IHP_SRAM_top\.Inst_IHP_SRAM_top_ConfigMem\.Inst_frame3_bit30\.Q
*743 Tile_X0Y0_IHP_SRAM_top\.Inst_IHP_SRAM_top_ConfigMem\.Inst_frame3_bit31\.Q
*744 Tile_X0Y0_IHP_SRAM_top\.Inst_IHP_SRAM_top_ConfigMem\.Inst_frame3_bit4\.Q
*745 Tile_X0Y0_IHP_SRAM_top\.Inst_IHP_SRAM_top_ConfigMem\.Inst_frame3_bit5\.Q
*746 Tile_X0Y0_IHP_SRAM_top\.Inst_IHP_SRAM_top_ConfigMem\.Inst_frame3_bit6\.Q
*747 Tile_X0Y0_IHP_SRAM_top\.Inst_IHP_SRAM_top_ConfigMem\.Inst_frame3_bit7\.Q
*748 Tile_X0Y0_IHP_SRAM_top\.Inst_IHP_SRAM_top_ConfigMem\.Inst_frame3_bit8\.Q
*749 Tile_X0Y0_IHP_SRAM_top\.Inst_IHP_SRAM_top_ConfigMem\.Inst_frame3_bit9\.Q
*750 Tile_X0Y0_IHP_SRAM_top\.Inst_IHP_SRAM_top_ConfigMem\.Inst_frame4_bit0\.Q
*751 Tile_X0Y0_IHP_SRAM_top\.Inst_IHP_SRAM_top_ConfigMem\.Inst_frame4_bit1\.Q
*752 Tile_X0Y0_IHP_SRAM_top\.Inst_IHP_SRAM_top_ConfigMem\.Inst_frame4_bit10\.Q
*753 Tile_X0Y0_IHP_SRAM_top\.Inst_IHP_SRAM_top_ConfigMem\.Inst_frame4_bit11\.Q
*754 Tile_X0Y0_IHP_SRAM_top\.Inst_IHP_SRAM_top_ConfigMem\.Inst_frame4_bit12\.Q
*755 Tile_X0Y0_IHP_SRAM_top\.Inst_IHP_SRAM_top_ConfigMem\.Inst_frame4_bit13\.Q
*756 Tile_X0Y0_IHP_SRAM_top\.Inst_IHP_SRAM_top_ConfigMem\.Inst_frame4_bit14\.Q
*757 Tile_X0Y0_IHP_SRAM_top\.Inst_IHP_SRAM_top_ConfigMem\.Inst_frame4_bit15\.Q
*758 Tile_X0Y0_IHP_SRAM_top\.Inst_IHP_SRAM_top_ConfigMem\.Inst_frame4_bit16\.Q
*759 Tile_X0Y0_IHP_SRAM_top\.Inst_IHP_SRAM_top_ConfigMem\.Inst_frame4_bit17\.Q
*760 Tile_X0Y0_IHP_SRAM_top\.Inst_IHP_SRAM_top_ConfigMem\.Inst_frame4_bit18\.Q
*761 Tile_X0Y0_IHP_SRAM_top\.Inst_IHP_SRAM_top_ConfigMem\.Inst_frame4_bit19\.Q
*762 Tile_X0Y0_IHP_SRAM_top\.Inst_IHP_SRAM_top_ConfigMem\.Inst_frame4_bit2\.Q
*763 Tile_X0Y0_IHP_SRAM_top\.Inst_IHP_SRAM_top_ConfigMem\.Inst_frame4_bit20\.Q
*764 Tile_X0Y0_IHP_SRAM_top\.Inst_IHP_SRAM_top_ConfigMem\.Inst_frame4_bit21\.Q
*765 Tile_X0Y0_IHP_SRAM_top\.Inst_IHP_SRAM_top_ConfigMem\.Inst_frame4_bit22\.Q
*766 Tile_X0Y0_IHP_SRAM_top\.Inst_IHP_SRAM_top_ConfigMem\.Inst_frame4_bit23\.Q
*767 Tile_X0Y0_IHP_SRAM_top\.Inst_IHP_SRAM_top_ConfigMem\.Inst_frame4_bit24\.Q
*768 Tile_X0Y0_IHP_SRAM_top\.Inst_IHP_SRAM_top_ConfigMem\.Inst_frame4_bit25\.Q
*769 Tile_X0Y0_IHP_SRAM_top\.Inst_IHP_SRAM_top_ConfigMem\.Inst_frame4_bit26\.Q
*770 Tile_X0Y0_IHP_SRAM_top\.Inst_IHP_SRAM_top_ConfigMem\.Inst_frame4_bit27\.Q
*771 Tile_X0Y0_IHP_SRAM_top\.Inst_IHP_SRAM_top_ConfigMem\.Inst_frame4_bit28\.Q
*772 Tile_X0Y0_IHP_SRAM_top\.Inst_IHP_SRAM_top_ConfigMem\.Inst_frame4_bit29\.Q
*773 Tile_X0Y0_IHP_SRAM_top\.Inst_IHP_SRAM_top_ConfigMem\.Inst_frame4_bit3\.Q
*774 Tile_X0Y0_IHP_SRAM_top\.Inst_IHP_SRAM_top_ConfigMem\.Inst_frame4_bit30\.Q
*775 Tile_X0Y0_IHP_SRAM_top\.Inst_IHP_SRAM_top_ConfigMem\.Inst_frame4_bit31\.Q
*776 Tile_X0Y0_IHP_SRAM_top\.Inst_IHP_SRAM_top_ConfigMem\.Inst_frame4_bit4\.Q
*777 Tile_X0Y0_IHP_SRAM_top\.Inst_IHP_SRAM_top_ConfigMem\.Inst_frame4_bit5\.Q
*778 Tile_X0Y0_IHP_SRAM_top\.Inst_IHP_SRAM_top_ConfigMem\.Inst_frame4_bit6\.Q
*779 Tile_X0Y0_IHP_SRAM_top\.Inst_IHP_SRAM_top_ConfigMem\.Inst_frame4_bit7\.Q
*780 Tile_X0Y0_IHP_SRAM_top\.Inst_IHP_SRAM_top_ConfigMem\.Inst_frame4_bit8\.Q
*781 Tile_X0Y0_IHP_SRAM_top\.Inst_IHP_SRAM_top_ConfigMem\.Inst_frame4_bit9\.Q
*782 Tile_X0Y0_IHP_SRAM_top\.Inst_IHP_SRAM_top_ConfigMem\.Inst_frame5_bit0\.Q
*783 Tile_X0Y0_IHP_SRAM_top\.Inst_IHP_SRAM_top_ConfigMem\.Inst_frame5_bit1\.Q
*784 Tile_X0Y0_IHP_SRAM_top\.Inst_IHP_SRAM_top_ConfigMem\.Inst_frame5_bit10\.Q
*785 Tile_X0Y0_IHP_SRAM_top\.Inst_IHP_SRAM_top_ConfigMem\.Inst_frame5_bit11\.Q
*786 Tile_X0Y0_IHP_SRAM_top\.Inst_IHP_SRAM_top_ConfigMem\.Inst_frame5_bit12\.Q
*787 Tile_X0Y0_IHP_SRAM_top\.Inst_IHP_SRAM_top_ConfigMem\.Inst_frame5_bit13\.Q
*788 Tile_X0Y0_IHP_SRAM_top\.Inst_IHP_SRAM_top_ConfigMem\.Inst_frame5_bit14\.Q
*789 Tile_X0Y0_IHP_SRAM_top\.Inst_IHP_SRAM_top_ConfigMem\.Inst_frame5_bit15\.Q
*790 Tile_X0Y0_IHP_SRAM_top\.Inst_IHP_SRAM_top_ConfigMem\.Inst_frame5_bit16\.Q
*791 Tile_X0Y0_IHP_SRAM_top\.Inst_IHP_SRAM_top_ConfigMem\.Inst_frame5_bit17\.Q
*792 Tile_X0Y0_IHP_SRAM_top\.Inst_IHP_SRAM_top_ConfigMem\.Inst_frame5_bit18\.Q
*793 Tile_X0Y0_IHP_SRAM_top\.Inst_IHP_SRAM_top_ConfigMem\.Inst_frame5_bit19\.Q
*794 Tile_X0Y0_IHP_SRAM_top\.Inst_IHP_SRAM_top_ConfigMem\.Inst_frame5_bit2\.Q
*795 Tile_X0Y0_IHP_SRAM_top\.Inst_IHP_SRAM_top_ConfigMem\.Inst_frame5_bit20\.Q
*796 Tile_X0Y0_IHP_SRAM_top\.Inst_IHP_SRAM_top_ConfigMem\.Inst_frame5_bit21\.Q
*797 Tile_X0Y0_IHP_SRAM_top\.Inst_IHP_SRAM_top_ConfigMem\.Inst_frame5_bit22\.Q
*798 Tile_X0Y0_IHP_SRAM_top\.Inst_IHP_SRAM_top_ConfigMem\.Inst_frame5_bit23\.Q
*799 Tile_X0Y0_IHP_SRAM_top\.Inst_IHP_SRAM_top_ConfigMem\.Inst_frame5_bit24\.Q
*800 Tile_X0Y0_IHP_SRAM_top\.Inst_IHP_SRAM_top_ConfigMem\.Inst_frame5_bit25\.Q
*801 Tile_X0Y0_IHP_SRAM_top\.Inst_IHP_SRAM_top_ConfigMem\.Inst_frame5_bit26\.Q
*802 Tile_X0Y0_IHP_SRAM_top\.Inst_IHP_SRAM_top_ConfigMem\.Inst_frame5_bit27\.Q
*803 Tile_X0Y0_IHP_SRAM_top\.Inst_IHP_SRAM_top_ConfigMem\.Inst_frame5_bit28\.Q
*804 Tile_X0Y0_IHP_SRAM_top\.Inst_IHP_SRAM_top_ConfigMem\.Inst_frame5_bit29\.Q
*805 Tile_X0Y0_IHP_SRAM_top\.Inst_IHP_SRAM_top_ConfigMem\.Inst_frame5_bit3\.Q
*806 Tile_X0Y0_IHP_SRAM_top\.Inst_IHP_SRAM_top_ConfigMem\.Inst_frame5_bit30\.Q
*807 Tile_X0Y0_IHP_SRAM_top\.Inst_IHP_SRAM_top_ConfigMem\.Inst_frame5_bit31\.Q