* NGSPICE file created from heichips25_example_small.ext - technology: ihp-sg13g2

* Black-box entry subcircuit for sg13g2_decap_8 abstract view
.subckt sg13g2_decap_8 VDD VSS
.ends

* Black-box entry subcircuit for sg13g2_fill_2 abstract view
.subckt sg13g2_fill_2 VDD VSS
.ends

* Black-box entry subcircuit for sg13g2_nand2_1 abstract view
.subckt sg13g2_nand2_1 Y A B VDD VSS
.ends

* Black-box entry subcircuit for sg13g2_buf_1 abstract view
.subckt sg13g2_buf_1 A X VDD VSS
.ends

* Black-box entry subcircuit for sg13g2_fill_1 abstract view
.subckt sg13g2_fill_1 VDD VSS
.ends

* Black-box entry subcircuit for sg13g2_xor2_1 abstract view
.subckt sg13g2_xor2_1 B A X VDD VSS
.ends

* Black-box entry subcircuit for sg13g2_inv_1 abstract view
.subckt sg13g2_inv_1 VDD Y A VSS
.ends

* Black-box entry subcircuit for sg13g2_decap_4 abstract view
.subckt sg13g2_decap_4 VDD VSS
.ends

* Black-box entry subcircuit for sg13g2_xnor2_1 abstract view
.subckt sg13g2_xnor2_1 Y A B VDD VSS
.ends

* Black-box entry subcircuit for sg13g2_and2_1 abstract view
.subckt sg13g2_and2_1 A B X VDD VSS
.ends

* Black-box entry subcircuit for sg13g2_o21ai_1 abstract view
.subckt sg13g2_o21ai_1 B1 VDD Y VSS A1 A2
.ends

* Black-box entry subcircuit for sg13g2_a21oi_1 abstract view
.subckt sg13g2_a21oi_1 VSS VDD A1 A2 Y B1
.ends

* Black-box entry subcircuit for sg13g2_nand2b_1 abstract view
.subckt sg13g2_nand2b_1 Y B A_N VDD VSS
.ends

* Black-box entry subcircuit for sg13g2_nor2_1 abstract view
.subckt sg13g2_nor2_1 A B Y VDD VSS
.ends

* Black-box entry subcircuit for sg13g2_tielo abstract view
.subckt sg13g2_tielo VDD VSS L_LO
.ends

* Black-box entry subcircuit for sg13g2_a221oi_1 abstract view
.subckt sg13g2_a221oi_1 VDD VSS B2 C1 B1 A1 Y A2
.ends

* Black-box entry subcircuit for sg13g2_or2_1 abstract view
.subckt sg13g2_or2_1 VSS VDD X B A
.ends

* Black-box entry subcircuit for sg13g2_a21oi_2 abstract view
.subckt sg13g2_a21oi_2 VSS VDD B1 Y A2 A1
.ends

.subckt heichips25_example_small VGND VPWR clk ena rst_n ui_in[0] ui_in[1] ui_in[2]
+ ui_in[3] ui_in[4] ui_in[5] ui_in[6] ui_in[7] uio_in[0] uio_in[1] uio_in[2] uio_in[3]
+ uio_in[4] uio_in[5] uio_in[6] uio_in[7] uio_oe[0] uio_oe[1] uio_oe[2] uio_oe[3]
+ uio_oe[4] uio_oe[5] uio_oe[6] uio_oe[7] uio_out[0] uio_out[1] uio_out[2] uio_out[3]
+ uio_out[4] uio_out[5] uio_out[6] uio_out[7] uo_out[0] uo_out[1] uo_out[2] uo_out[3]
+ uo_out[4] uo_out[5] uo_out[6] uo_out[7]
XFILLER_39_211 VPWR VGND sg13g2_decap_8
XFILLER_39_288 VPWR VGND sg13g2_decap_8
XFILLER_36_984 VPWR VGND sg13g2_decap_8
XFILLER_23_634 VPWR VGND sg13g2_decap_8
XFILLER_35_494 VPWR VGND sg13g2_decap_8
XFILLER_22_144 VPWR VGND sg13g2_decap_8
XFILLER_7_7 VPWR VGND sg13g2_decap_8
XFILLER_19_907 VPWR VGND sg13g2_decap_8
XFILLER_18_417 VPWR VGND sg13g2_decap_8
XFILLER_45_214 VPWR VGND sg13g2_decap_8
XFILLER_27_940 VPWR VGND sg13g2_decap_8
XFILLER_42_921 VPWR VGND sg13g2_decap_8
XFILLER_26_461 VPWR VGND sg13g2_decap_8
XFILLER_41_420 VPWR VGND sg13g2_decap_8
XFILLER_14_634 VPWR VGND sg13g2_decap_8
XFILLER_42_998 VPWR VGND sg13g2_decap_8
XFILLER_13_144 VPWR VGND sg13g2_decap_8
XFILLER_41_497 VPWR VGND sg13g2_decap_8
XFILLER_9_137 VPWR VGND sg13g2_decap_8
XFILLER_42_95 VPWR VGND sg13g2_decap_8
XFILLER_10_851 VPWR VGND sg13g2_decap_8
XFILLER_6_844 VPWR VGND sg13g2_decap_8
XFILLER_5_354 VPWR VGND sg13g2_decap_8
XFILLER_1_560 VPWR VGND sg13g2_decap_8
XFILLER_3_67 VPWR VGND sg13g2_decap_8
XFILLER_49_553 VPWR VGND sg13g2_decap_8
XFILLER_36_214 VPWR VGND sg13g2_decap_8
XFILLER_45_781 VPWR VGND sg13g2_decap_8
XFILLER_17_483 VPWR VGND sg13g2_decap_8
XFILLER_18_984 VPWR VGND sg13g2_decap_8
XFILLER_33_910 VPWR VGND sg13g2_decap_8
XFILLER_44_291 VPWR VGND sg13g2_decap_8
XFILLER_32_431 VPWR VGND sg13g2_decap_8
XFILLER_33_987 VPWR VGND sg13g2_decap_8
XFILLER_20_648 VPWR VGND sg13g2_decap_8
XFILLER_34_1020 VPWR VGND sg13g2_decap_8
XFILLER_28_748 VPWR VGND sg13g2_decap_8
XFILLER_43_718 VPWR VGND sg13g2_decap_8
XFILLER_27_247 VPWR VGND sg13g2_decap_8
XFILLER_42_228 VPWR VGND sg13g2_decap_8
XFILLER_24_921 VPWR VGND sg13g2_decap_8
XFILLER_36_781 VPWR VGND sg13g2_decap_8
XFILLER_23_431 VPWR VGND sg13g2_decap_8
XFILLER_35_291 VPWR VGND sg13g2_decap_8
XFILLER_24_998 VPWR VGND sg13g2_decap_8
XFILLER_11_648 VPWR VGND sg13g2_decap_8
XFILLER_10_158 VPWR VGND sg13g2_decap_8
XFILLER_12_32 VPWR VGND sg13g2_decap_8
XFILLER_5_4 VPWR VGND sg13g2_decap_8
XFILLER_3_858 VPWR VGND sg13g2_decap_8
XFILLER_2_368 VPWR VGND sg13g2_decap_8
XFILLER_19_704 VPWR VGND sg13g2_decap_8
XFILLER_18_214 VPWR VGND sg13g2_decap_8
XFILLER_46_567 VPWR VGND sg13g2_decap_8
XFILLER_37_84 VPWR VGND sg13g2_decap_8
XFILLER_15_921 VPWR VGND sg13g2_decap_8
XFILLER_33_217 VPWR VGND sg13g2_decap_8
XFILLER_14_431 VPWR VGND sg13g2_decap_8
XFILLER_15_998 VPWR VGND sg13g2_decap_8
XFILLER_18_1026 VPWR VGND sg13g2_fill_2
XFILLER_42_795 VPWR VGND sg13g2_decap_8
XFILLER_30_935 VPWR VGND sg13g2_decap_8
XFILLER_41_294 VPWR VGND sg13g2_decap_8
XFILLER_6_641 VPWR VGND sg13g2_decap_8
XFILLER_5_151 VPWR VGND sg13g2_decap_8
XFILLER_38_4 VPWR VGND sg13g2_decap_8
XFILLER_25_1019 VPWR VGND sg13g2_decap_8
XFILLER_49_350 VPWR VGND sg13g2_decap_8
XFILLER_37_567 VPWR VGND sg13g2_decap_8
XFILLER_18_781 VPWR VGND sg13g2_decap_8
XFILLER_25_718 VPWR VGND sg13g2_decap_8
XFILLER_17_280 VPWR VGND sg13g2_decap_8
XFILLER_24_228 VPWR VGND sg13g2_decap_8
XFILLER_21_935 VPWR VGND sg13g2_decap_8
XFILLER_33_784 VPWR VGND sg13g2_decap_8
XFILLER_20_445 VPWR VGND sg13g2_decap_8
XFILLER_28_545 VPWR VGND sg13g2_decap_8
XFILLER_43_515 VPWR VGND sg13g2_decap_8
XFILLER_16_718 VPWR VGND sg13g2_decap_8
XFILLER_15_228 VPWR VGND sg13g2_decap_8
XFILLER_12_935 VPWR VGND sg13g2_decap_8
XFILLER_24_795 VPWR VGND sg13g2_decap_8
XFILLER_8_928 VPWR VGND sg13g2_decap_8
XFILLER_11_445 VPWR VGND sg13g2_decap_8
XFILLER_23_53 VPWR VGND sg13g2_decap_8
XFILLER_7_427 VPWR VGND sg13g2_decap_8
XFILLER_48_1008 VPWR VGND sg13g2_decap_8
XFILLER_3_655 VPWR VGND sg13g2_decap_8
XFILLER_2_165 VPWR VGND sg13g2_decap_8
XFILLER_19_501 VPWR VGND sg13g2_decap_8
XFILLER_47_854 VPWR VGND sg13g2_decap_8
XFILLER_0_35 VPWR VGND sg13g2_decap_8
XFILLER_46_364 VPWR VGND sg13g2_decap_8
XFILLER_19_578 VPWR VGND sg13g2_decap_8
XFILLER_34_537 VPWR VGND sg13g2_decap_8
XFILLER_9_11 VPWR VGND sg13g2_decap_8
XFILLER_42_592 VPWR VGND sg13g2_decap_8
XFILLER_15_795 VPWR VGND sg13g2_decap_8
XFILLER_30_732 VPWR VGND sg13g2_decap_8
XFILLER_9_88 VPWR VGND sg13g2_decap_8
XFILLER_31_1001 VPWR VGND sg13g2_decap_8
XFILLER_7_994 VPWR VGND sg13g2_decap_8
XFILLER_38_865 VPWR VGND sg13g2_decap_8
XFILLER_25_515 VPWR VGND sg13g2_decap_8
X_49_ _17_ _13_ _15_ VPWR VGND sg13g2_nand2_1
XFILLER_37_364 VPWR VGND sg13g2_decap_8
XFILLER_21_732 VPWR VGND sg13g2_decap_8
XFILLER_33_581 VPWR VGND sg13g2_decap_8
XFILLER_20_242 VPWR VGND sg13g2_decap_8
XFILLER_0_658 VPWR VGND sg13g2_decap_8
XFILLER_18_53 VPWR VGND sg13g2_decap_8
XFILLER_28_342 VPWR VGND sg13g2_decap_8
XFILLER_29_865 VPWR VGND sg13g2_decap_8
XFILLER_44_802 VPWR VGND sg13g2_decap_8
XFILLER_16_515 VPWR VGND sg13g2_decap_8
XFILLER_43_312 VPWR VGND sg13g2_decap_8
XFILLER_44_879 VPWR VGND sg13g2_decap_8
XFILLER_31_518 VPWR VGND sg13g2_decap_8
XFILLER_43_389 VPWR VGND sg13g2_decap_8
XFILLER_12_732 VPWR VGND sg13g2_decap_8
XFILLER_24_592 VPWR VGND sg13g2_decap_8
XFILLER_34_96 VPWR VGND sg13g2_decap_8
XFILLER_8_725 VPWR VGND sg13g2_decap_8
XFILLER_11_242 VPWR VGND sg13g2_decap_8
XFILLER_7_224 VPWR VGND sg13g2_decap_8
XFILLER_4_942 VPWR VGND sg13g2_decap_8
XFILLER_3_452 VPWR VGND sg13g2_decap_8
XFILLER_47_651 VPWR VGND sg13g2_decap_8
XFILLER_19_375 VPWR VGND sg13g2_decap_8
XFILLER_35_802 VPWR VGND sg13g2_decap_8
XFILLER_46_161 VPWR VGND sg13g2_decap_8
XFILLER_34_334 VPWR VGND sg13g2_decap_8
XFILLER_35_879 VPWR VGND sg13g2_decap_8
XFILLER_22_529 VPWR VGND sg13g2_decap_8
XFILLER_15_592 VPWR VGND sg13g2_decap_8
XFILLER_7_791 VPWR VGND sg13g2_decap_8
XFILLER_44_109 VPWR VGND sg13g2_decap_8
XFILLER_38_662 VPWR VGND sg13g2_decap_8
XFILLER_25_312 VPWR VGND sg13g2_decap_8
XFILLER_26_846 VPWR VGND sg13g2_decap_8
XFILLER_37_161 VPWR VGND sg13g2_decap_8
XFILLER_41_805 VPWR VGND sg13g2_decap_8
XFILLER_13_529 VPWR VGND sg13g2_decap_8
XFILLER_25_389 VPWR VGND sg13g2_decap_8
XFILLER_40_359 VPWR VGND sg13g2_decap_8
XFILLER_5_739 VPWR VGND sg13g2_decap_8
XFILLER_4_249 VPWR VGND sg13g2_decap_8
XFILLER_20_32 VPWR VGND sg13g2_decap_8
XFILLER_1_945 VPWR VGND sg13g2_decap_8
XFILLER_0_455 VPWR VGND sg13g2_decap_8
XFILLER_49_938 VPWR VGND sg13g2_decap_8
XFILLER_48_448 VPWR VGND sg13g2_decap_8
XFILLER_29_74 VPWR VGND sg13g2_decap_8
XFILLER_29_662 VPWR VGND sg13g2_decap_8
XFILLER_35_109 VPWR VGND sg13g2_decap_8
XFILLER_16_312 VPWR VGND sg13g2_decap_8
XFILLER_44_676 VPWR VGND sg13g2_decap_8
XFILLER_17_868 VPWR VGND sg13g2_decap_8
XFILLER_32_816 VPWR VGND sg13g2_decap_8
XFILLER_45_95 VPWR VGND sg13g2_decap_8
XFILLER_43_186 VPWR VGND sg13g2_decap_8
XFILLER_16_389 VPWR VGND sg13g2_decap_8
XFILLER_31_315 VPWR VGND sg13g2_decap_8
XFILLER_8_522 VPWR VGND sg13g2_decap_8
XFILLER_8_599 VPWR VGND sg13g2_decap_8
XFILLER_6_67 VPWR VGND sg13g2_decap_8
XFILLER_6_1005 VPWR VGND sg13g2_decap_8
XFILLER_20_4 VPWR VGND sg13g2_decap_8
XFILLER_19_172 VPWR VGND sg13g2_decap_8
XFILLER_34_131 VPWR VGND sg13g2_decap_8
XFILLER_23_816 VPWR VGND sg13g2_decap_8
XFILLER_35_676 VPWR VGND sg13g2_decap_8
XFILLER_22_326 VPWR VGND sg13g2_decap_8
XFILLER_31_882 VPWR VGND sg13g2_decap_8
XFILLER_39_960 VPWR VGND sg13g2_decap_8
XFILLER_26_643 VPWR VGND sg13g2_decap_8
XFILLER_41_602 VPWR VGND sg13g2_decap_8
XFILLER_14_816 VPWR VGND sg13g2_decap_8
XFILLER_15_32 VPWR VGND sg13g2_decap_8
XFILLER_13_326 VPWR VGND sg13g2_decap_8
XFILLER_25_186 VPWR VGND sg13g2_decap_8
XFILLER_41_679 VPWR VGND sg13g2_decap_8
XFILLER_9_319 VPWR VGND sg13g2_decap_8
XFILLER_40_156 VPWR VGND sg13g2_decap_8
XFILLER_22_893 VPWR VGND sg13g2_decap_8
XFILLER_31_53 VPWR VGND sg13g2_decap_8
XFILLER_5_536 VPWR VGND sg13g2_decap_8
Xoutput20 net20 uo_out[3] VPWR VGND sg13g2_buf_1
XFILLER_1_742 VPWR VGND sg13g2_decap_8
XFILLER_0_252 VPWR VGND sg13g2_decap_8
XFILLER_49_735 VPWR VGND sg13g2_decap_8
XFILLER_48_245 VPWR VGND sg13g2_decap_8
XFILLER_45_963 VPWR VGND sg13g2_decap_8
XFILLER_17_665 VPWR VGND sg13g2_decap_8
XFILLER_44_473 VPWR VGND sg13g2_decap_8
XFILLER_32_613 VPWR VGND sg13g2_decap_8
XFILLER_16_186 VPWR VGND sg13g2_decap_8
XFILLER_31_134 VPWR VGND sg13g2_fill_1
XFILLER_13_893 VPWR VGND sg13g2_decap_8
XFILLER_31_189 VPWR VGND sg13g2_decap_8
XFILLER_9_886 VPWR VGND sg13g2_decap_8
XFILLER_8_396 VPWR VGND sg13g2_decap_8
XFILLER_28_1028 VPWR VGND sg13g2_fill_1
XFILLER_39_267 VPWR VGND sg13g2_decap_8
XFILLER_27_429 VPWR VGND sg13g2_decap_8
XFILLER_36_963 VPWR VGND sg13g2_decap_8
XFILLER_23_613 VPWR VGND sg13g2_decap_8
XFILLER_35_473 VPWR VGND sg13g2_decap_8
XFILLER_22_123 VPWR VGND sg13g2_decap_8
XFILLER_46_749 VPWR VGND sg13g2_decap_8
XFILLER_26_440 VPWR VGND sg13g2_decap_8
XFILLER_42_900 VPWR VGND sg13g2_decap_8
XFILLER_14_613 VPWR VGND sg13g2_decap_8
XFILLER_26_53 VPWR VGND sg13g2_fill_1
XFILLER_27_996 VPWR VGND sg13g2_decap_8
XFILLER_13_123 VPWR VGND sg13g2_decap_8
XFILLER_26_97 VPWR VGND sg13g2_decap_8
XFILLER_42_977 VPWR VGND sg13g2_decap_8
XFILLER_41_476 VPWR VGND sg13g2_decap_8
XFILLER_9_116 VPWR VGND sg13g2_decap_8
XFILLER_10_830 VPWR VGND sg13g2_decap_8
XFILLER_42_74 VPWR VGND sg13g2_decap_8
XFILLER_22_690 VPWR VGND sg13g2_decap_8
XFILLER_6_823 VPWR VGND sg13g2_decap_8
XFILLER_5_333 VPWR VGND sg13g2_decap_8
XFILLER_3_46 VPWR VGND sg13g2_decap_8
XFILLER_49_532 VPWR VGND sg13g2_decap_8
XFILLER_3_1019 VPWR VGND sg13g2_decap_8
XFILLER_37_749 VPWR VGND sg13g2_decap_8
XFILLER_18_963 VPWR VGND sg13g2_decap_8
XFILLER_45_760 VPWR VGND sg13g2_decap_8
XFILLER_17_462 VPWR VGND sg13g2_decap_8
XFILLER_44_270 VPWR VGND sg13g2_decap_8
XFILLER_32_410 VPWR VGND sg13g2_decap_8
XFILLER_33_966 VPWR VGND sg13g2_decap_8
XFILLER_20_627 VPWR VGND sg13g2_decap_8
XFILLER_32_487 VPWR VGND sg13g2_decap_8
XFILLER_13_690 VPWR VGND sg13g2_decap_8
XFILLER_9_683 VPWR VGND sg13g2_decap_8
XFILLER_8_193 VPWR VGND sg13g2_decap_8
XFILLER_27_226 VPWR VGND sg13g2_decap_8
XFILLER_28_727 VPWR VGND sg13g2_decap_8
XFILLER_42_207 VPWR VGND sg13g2_decap_8
XFILLER_24_900 VPWR VGND sg13g2_decap_8
XFILLER_36_760 VPWR VGND sg13g2_decap_8
XFILLER_23_410 VPWR VGND sg13g2_decap_8
XFILLER_35_270 VPWR VGND sg13g2_decap_8
XFILLER_24_977 VPWR VGND sg13g2_decap_8
XFILLER_11_627 VPWR VGND sg13g2_decap_8
XFILLER_23_487 VPWR VGND sg13g2_decap_8
XFILLER_10_137 VPWR VGND sg13g2_decap_8
XFILLER_7_609 VPWR VGND sg13g2_decap_8
XFILLER_12_11 VPWR VGND sg13g2_decap_8
XFILLER_12_88 VPWR VGND sg13g2_decap_8
XFILLER_3_837 VPWR VGND sg13g2_decap_8
XFILLER_2_347 VPWR VGND sg13g2_decap_8
XFILLER_46_546 VPWR VGND sg13g2_decap_8
XFILLER_37_63 VPWR VGND sg13g2_decap_8
XFILLER_15_900 VPWR VGND sg13g2_decap_8
XFILLER_34_719 VPWR VGND sg13g2_decap_8
XFILLER_14_410 VPWR VGND sg13g2_decap_8
XFILLER_27_793 VPWR VGND sg13g2_decap_8
XFILLER_42_774 VPWR VGND sg13g2_decap_8
XFILLER_15_977 VPWR VGND sg13g2_decap_8
XFILLER_18_1005 VPWR VGND sg13g2_decap_8
XFILLER_30_914 VPWR VGND sg13g2_decap_8
XFILLER_41_273 VPWR VGND sg13g2_decap_8
XFILLER_14_487 VPWR VGND sg13g2_decap_8
XFILLER_6_620 VPWR VGND sg13g2_decap_8
XFILLER_5_130 VPWR VGND sg13g2_decap_8
XFILLER_6_697 VPWR VGND sg13g2_decap_8
X_65_ net9 net1 net17 VPWR VGND sg13g2_xor2_1
XFILLER_37_546 VPWR VGND sg13g2_decap_8
XFILLER_18_760 VPWR VGND sg13g2_decap_8
XFILLER_24_207 VPWR VGND sg13g2_decap_8
XFILLER_21_914 VPWR VGND sg13g2_decap_8
XFILLER_33_763 VPWR VGND sg13g2_decap_8
XFILLER_20_424 VPWR VGND sg13g2_decap_8
XFILLER_32_284 VPWR VGND sg13g2_decap_8
XFILLER_9_480 VPWR VGND sg13g2_decap_8
XFILLER_28_524 VPWR VGND sg13g2_decap_8
XFILLER_15_207 VPWR VGND sg13g2_decap_8
XFILLER_12_914 VPWR VGND sg13g2_decap_8
XFILLER_11_424 VPWR VGND sg13g2_decap_8
XFILLER_24_774 VPWR VGND sg13g2_decap_8
XFILLER_8_907 VPWR VGND sg13g2_decap_8
XFILLER_7_406 VPWR VGND sg13g2_decap_8
XFILLER_23_32 VPWR VGND sg13g2_decap_8
XFILLER_23_284 VPWR VGND sg13g2_decap_8
XFILLER_20_991 VPWR VGND sg13g2_decap_8
XFILLER_3_634 VPWR VGND sg13g2_decap_8
XFILLER_2_144 VPWR VGND sg13g2_decap_8
XFILLER_47_833 VPWR VGND sg13g2_decap_8
XFILLER_48_84 VPWR VGND sg13g2_decap_8
XFILLER_46_343 VPWR VGND sg13g2_decap_8
XFILLER_0_14 VPWR VGND sg13g2_decap_8
XFILLER_19_557 VPWR VGND sg13g2_decap_8
XFILLER_34_516 VPWR VGND sg13g2_decap_8
XFILLER_27_590 VPWR VGND sg13g2_decap_8
XFILLER_42_571 VPWR VGND sg13g2_decap_8
XFILLER_15_774 VPWR VGND sg13g2_decap_8
XFILLER_30_711 VPWR VGND sg13g2_decap_8
XFILLER_9_67 VPWR VGND sg13g2_decap_8
XFILLER_14_284 VPWR VGND sg13g2_decap_8
XFILLER_30_788 VPWR VGND sg13g2_decap_8
XFILLER_11_991 VPWR VGND sg13g2_decap_8
XFILLER_7_973 VPWR VGND sg13g2_decap_8
XFILLER_6_494 VPWR VGND sg13g2_decap_8
XFILLER_38_844 VPWR VGND sg13g2_decap_8
X_48_ VPWR _16_ _15_ VGND sg13g2_inv_1
XFILLER_37_343 VPWR VGND sg13g2_decap_8
XFILLER_21_711 VPWR VGND sg13g2_decap_8
XFILLER_33_560 VPWR VGND sg13g2_decap_8
XFILLER_20_221 VPWR VGND sg13g2_decap_8
XFILLER_21_788 VPWR VGND sg13g2_decap_8
XFILLER_20_298 VPWR VGND sg13g2_decap_8
XFILLER_0_637 VPWR VGND sg13g2_decap_8
XFILLER_18_32 VPWR VGND sg13g2_decap_8
XFILLER_28_321 VPWR VGND sg13g2_decap_8
XFILLER_29_844 VPWR VGND sg13g2_decap_8
XFILLER_44_858 VPWR VGND sg13g2_decap_8
XFILLER_28_398 VPWR VGND sg13g2_decap_8
XFILLER_43_368 VPWR VGND sg13g2_decap_8
XFILLER_12_711 VPWR VGND sg13g2_decap_8
XFILLER_24_571 VPWR VGND sg13g2_decap_8
XFILLER_34_42 VPWR VGND sg13g2_decap_8
XFILLER_34_64 VPWR VGND sg13g2_decap_4
XFILLER_8_704 VPWR VGND sg13g2_decap_8
XFILLER_11_221 VPWR VGND sg13g2_decap_8
XFILLER_15_1019 VPWR VGND sg13g2_decap_8
XFILLER_7_203 VPWR VGND sg13g2_decap_8
XFILLER_12_788 VPWR VGND sg13g2_decap_8
XFILLER_11_298 VPWR VGND sg13g2_decap_8
XFILLER_4_921 VPWR VGND sg13g2_decap_8
XFILLER_3_431 VPWR VGND sg13g2_decap_8
XFILLER_4_998 VPWR VGND sg13g2_decap_8
XFILLER_47_630 VPWR VGND sg13g2_decap_8
XFILLER_46_140 VPWR VGND sg13g2_decap_8
XFILLER_19_354 VPWR VGND sg13g2_decap_8
XFILLER_34_313 VPWR VGND sg13g2_decap_8
XFILLER_35_858 VPWR VGND sg13g2_decap_8
XFILLER_22_508 VPWR VGND sg13g2_decap_8
XFILLER_15_571 VPWR VGND sg13g2_decap_8
XFILLER_30_585 VPWR VGND sg13g2_decap_8
XFILLER_7_770 VPWR VGND sg13g2_decap_8
XFILLER_6_291 VPWR VGND sg13g2_decap_8
XFILLER_38_641 VPWR VGND sg13g2_decap_8
XFILLER_37_140 VPWR VGND sg13g2_decap_8
XFILLER_26_825 VPWR VGND sg13g2_decap_8
XFILLER_38_1019 VPWR VGND sg13g2_decap_8
XFILLER_13_508 VPWR VGND sg13g2_decap_8
XFILLER_25_368 VPWR VGND sg13g2_decap_8
XFILLER_34_880 VPWR VGND sg13g2_decap_8
XFILLER_40_338 VPWR VGND sg13g2_decap_8
XFILLER_21_585 VPWR VGND sg13g2_decap_8
XFILLER_5_718 VPWR VGND sg13g2_decap_8
XFILLER_4_228 VPWR VGND sg13g2_decap_8
XFILLER_20_11 VPWR VGND sg13g2_decap_8
XFILLER_1_924 VPWR VGND sg13g2_decap_8
XFILLER_20_88 VPWR VGND sg13g2_decap_8
XFILLER_49_917 VPWR VGND sg13g2_decap_8
XFILLER_0_434 VPWR VGND sg13g2_decap_8
XFILLER_48_427 VPWR VGND sg13g2_decap_8
XFILLER_29_53 VPWR VGND sg13g2_decap_8
XFILLER_21_1012 VPWR VGND sg13g2_decap_8
XFILLER_29_641 VPWR VGND sg13g2_decap_8
XFILLER_17_847 VPWR VGND sg13g2_decap_8
XFILLER_45_74 VPWR VGND sg13g2_decap_8
XFILLER_44_655 VPWR VGND sg13g2_decap_8
XFILLER_28_195 VPWR VGND sg13g2_decap_8
XFILLER_43_165 VPWR VGND sg13g2_decap_8
XFILLER_16_368 VPWR VGND sg13g2_decap_8
XFILLER_8_501 VPWR VGND sg13g2_decap_8
XFILLER_12_585 VPWR VGND sg13g2_decap_8
XFILLER_8_578 VPWR VGND sg13g2_decap_8
XFILLER_6_46 VPWR VGND sg13g2_decap_8
XFILLER_4_795 VPWR VGND sg13g2_decap_8
XFILLER_6_1028 VPWR VGND sg13g2_fill_1
XFILLER_13_4 VPWR VGND sg13g2_decap_8
XFILLER_39_449 VPWR VGND sg13g2_decap_8
XFILLER_48_994 VPWR VGND sg13g2_decap_8
XFILLER_19_151 VPWR VGND sg13g2_decap_8
XFILLER_34_110 VPWR VGND sg13g2_decap_8
XFILLER_35_655 VPWR VGND sg13g2_decap_8
XFILLER_22_305 VPWR VGND sg13g2_decap_8
XFILLER_34_187 VPWR VGND sg13g2_decap_8
XFILLER_31_861 VPWR VGND sg13g2_decap_8
XFILLER_30_382 VPWR VGND sg13g2_decap_8
XFILLER_44_1012 VPWR VGND sg13g2_decap_8
XFILLER_26_622 VPWR VGND sg13g2_decap_8
XFILLER_13_305 VPWR VGND sg13g2_decap_8
XFILLER_15_11 VPWR VGND sg13g2_decap_8
XFILLER_25_165 VPWR VGND sg13g2_decap_8
XFILLER_26_699 VPWR VGND sg13g2_decap_8
XFILLER_41_658 VPWR VGND sg13g2_decap_8
XFILLER_40_135 VPWR VGND sg13g2_decap_8
XFILLER_15_88 VPWR VGND sg13g2_decap_8
XFILLER_22_872 VPWR VGND sg13g2_decap_8
XFILLER_21_382 VPWR VGND sg13g2_decap_8
XFILLER_31_32 VPWR VGND sg13g2_decap_8
XFILLER_5_515 VPWR VGND sg13g2_decap_8
Xoutput21 net21 uo_out[4] VPWR VGND sg13g2_buf_1
XFILLER_1_721 VPWR VGND sg13g2_decap_8
XFILLER_49_714 VPWR VGND sg13g2_decap_8
XFILLER_0_231 VPWR VGND sg13g2_decap_8
XFILLER_48_224 VPWR VGND sg13g2_decap_8
XFILLER_1_798 VPWR VGND sg13g2_decap_8
XFILLER_45_942 VPWR VGND sg13g2_decap_8
XFILLER_17_644 VPWR VGND sg13g2_decap_8
XFILLER_44_452 VPWR VGND sg13g2_decap_8
XFILLER_16_165 VPWR VGND sg13g2_decap_8
XFILLER_31_102 VPWR VGND sg13g2_decap_8
XFILLER_13_872 VPWR VGND sg13g2_decap_8
XFILLER_20_809 VPWR VGND sg13g2_decap_8
XFILLER_31_168 VPWR VGND sg13g2_decap_8
XFILLER_32_669 VPWR VGND sg13g2_decap_8
XFILLER_12_382 VPWR VGND sg13g2_decap_8
XFILLER_9_865 VPWR VGND sg13g2_decap_8
XFILLER_8_375 VPWR VGND sg13g2_decap_8
XFILLER_28_1007 VPWR VGND sg13g2_decap_8
XFILLER_4_592 VPWR VGND sg13g2_decap_8
XFILLER_27_408 VPWR VGND sg13g2_decap_8
XFILLER_28_909 VPWR VGND sg13g2_decap_8
XFILLER_39_246 VPWR VGND sg13g2_decap_8
XFILLER_48_791 VPWR VGND sg13g2_decap_8
XFILLER_36_942 VPWR VGND sg13g2_decap_8
XFILLER_35_452 VPWR VGND sg13g2_decap_8
XFILLER_22_102 VPWR VGND sg13g2_decap_8
XFILLER_11_809 VPWR VGND sg13g2_decap_8
XFILLER_23_669 VPWR VGND sg13g2_decap_8
XFILLER_10_319 VPWR VGND sg13g2_decap_8
XFILLER_22_179 VPWR VGND sg13g2_decap_8
XFILLER_2_529 VPWR VGND sg13g2_decap_8
XFILLER_46_728 VPWR VGND sg13g2_decap_8
XFILLER_45_249 VPWR VGND sg13g2_decap_8
XFILLER_26_32 VPWR VGND sg13g2_decap_8
XFILLER_27_975 VPWR VGND sg13g2_decap_8
XFILLER_42_956 VPWR VGND sg13g2_decap_8
XFILLER_13_102 VPWR VGND sg13g2_decap_8
XFILLER_26_76 VPWR VGND sg13g2_decap_8
XFILLER_26_496 VPWR VGND sg13g2_decap_8
XFILLER_41_455 VPWR VGND sg13g2_decap_8
XFILLER_14_669 VPWR VGND sg13g2_decap_8
XFILLER_42_53 VPWR VGND sg13g2_decap_8
XFILLER_13_179 VPWR VGND sg13g2_decap_8
XFILLER_6_802 VPWR VGND sg13g2_decap_8
XFILLER_5_312 VPWR VGND sg13g2_decap_8
XFILLER_10_886 VPWR VGND sg13g2_decap_8
XFILLER_6_879 VPWR VGND sg13g2_decap_8
XFILLER_5_389 VPWR VGND sg13g2_decap_8
XFILLER_3_25 VPWR VGND sg13g2_decap_8
XFILLER_49_511 VPWR VGND sg13g2_decap_8
XFILLER_1_595 VPWR VGND sg13g2_decap_8
XFILLER_49_588 VPWR VGND sg13g2_decap_8
XFILLER_37_728 VPWR VGND sg13g2_decap_8
XFILLER_18_942 VPWR VGND sg13g2_decap_8
XFILLER_36_249 VPWR VGND sg13g2_decap_8
XFILLER_17_441 VPWR VGND sg13g2_decap_8
XFILLER_33_945 VPWR VGND sg13g2_decap_8
XFILLER_20_606 VPWR VGND sg13g2_decap_8
XFILLER_32_466 VPWR VGND sg13g2_decap_8
XFILLER_9_662 VPWR VGND sg13g2_decap_8
XFILLER_8_172 VPWR VGND sg13g2_decap_8
XFILLER_41_1015 VPWR VGND sg13g2_decap_8
XFILLER_28_706 VPWR VGND sg13g2_decap_8
XFILLER_27_205 VPWR VGND sg13g2_decap_8
XFILLER_24_956 VPWR VGND sg13g2_decap_8
XFILLER_11_606 VPWR VGND sg13g2_decap_8
XFILLER_23_466 VPWR VGND sg13g2_decap_8
XFILLER_10_116 VPWR VGND sg13g2_decap_8
XFILLER_6_109 VPWR VGND sg13g2_decap_8
XFILLER_12_67 VPWR VGND sg13g2_decap_8
XFILLER_3_816 VPWR VGND sg13g2_decap_8
XFILLER_2_326 VPWR VGND sg13g2_decap_8
XFILLER_46_525 VPWR VGND sg13g2_decap_8
XFILLER_19_739 VPWR VGND sg13g2_decap_8
XFILLER_37_42 VPWR VGND sg13g2_decap_8
XFILLER_18_249 VPWR VGND sg13g2_decap_8
XFILLER_27_772 VPWR VGND sg13g2_decap_8
XFILLER_42_753 VPWR VGND sg13g2_decap_8
XFILLER_15_956 VPWR VGND sg13g2_decap_8
XFILLER_18_1028 VPWR VGND sg13g2_fill_1
XFILLER_26_293 VPWR VGND sg13g2_decap_8
XFILLER_41_252 VPWR VGND sg13g2_decap_8
XFILLER_14_466 VPWR VGND sg13g2_decap_8
XFILLER_10_683 VPWR VGND sg13g2_decap_8
XFILLER_6_676 VPWR VGND sg13g2_decap_8
XFILLER_5_186 VPWR VGND sg13g2_decap_8
XFILLER_2_893 VPWR VGND sg13g2_decap_8
XFILLER_1_392 VPWR VGND sg13g2_decap_8
XFILLER_37_525 VPWR VGND sg13g2_decap_8
X_64_ net24 _27_ _28_ VPWR VGND sg13g2_xnor2_1
XFILLER_49_385 VPWR VGND sg13g2_decap_8
XFILLER_33_742 VPWR VGND sg13g2_decap_8
XFILLER_20_403 VPWR VGND sg13g2_decap_8
XFILLER_32_263 VPWR VGND sg13g2_decap_8
XFILLER_0_819 VPWR VGND sg13g2_decap_8
XFILLER_28_503 VPWR VGND sg13g2_decap_8
XFILLER_24_753 VPWR VGND sg13g2_decap_8
XFILLER_11_403 VPWR VGND sg13g2_decap_8
XFILLER_23_11 VPWR VGND sg13g2_decap_8
XFILLER_23_263 VPWR VGND sg13g2_decap_8
XFILLER_20_970 VPWR VGND sg13g2_decap_8
XFILLER_23_88 VPWR VGND sg13g2_decap_8
XFILLER_3_613 VPWR VGND sg13g2_decap_8
XFILLER_2_123 VPWR VGND sg13g2_decap_8
XFILLER_47_812 VPWR VGND sg13g2_decap_8
XFILLER_48_63 VPWR VGND sg13g2_decap_8
XFILLER_46_322 VPWR VGND sg13g2_decap_8
XFILLER_19_536 VPWR VGND sg13g2_decap_8
XFILLER_47_889 VPWR VGND sg13g2_decap_8
XFILLER_46_399 VPWR VGND sg13g2_decap_8
XFILLER_15_753 VPWR VGND sg13g2_decap_8
XFILLER_42_550 VPWR VGND sg13g2_decap_8
XFILLER_14_263 VPWR VGND sg13g2_decap_8
XFILLER_9_46 VPWR VGND sg13g2_decap_8
XFILLER_11_970 VPWR VGND sg13g2_decap_8
XFILLER_30_767 VPWR VGND sg13g2_decap_8
XFILLER_10_480 VPWR VGND sg13g2_decap_8
XFILLER_7_952 VPWR VGND sg13g2_decap_8
XFILLER_6_473 VPWR VGND sg13g2_decap_8
XFILLER_43_4 VPWR VGND sg13g2_decap_8
XFILLER_9_1026 VPWR VGND sg13g2_fill_2
XFILLER_2_690 VPWR VGND sg13g2_decap_8
XFILLER_38_823 VPWR VGND sg13g2_decap_8
XFILLER_49_182 VPWR VGND sg13g2_decap_8
XFILLER_37_322 VPWR VGND sg13g2_decap_8
X_47_ net13 net5 _15_ VPWR VGND sg13g2_xor2_1
XFILLER_37_399 VPWR VGND sg13g2_decap_8
XFILLER_20_200 VPWR VGND sg13g2_decap_8
XFILLER_21_767 VPWR VGND sg13g2_decap_8
XFILLER_20_277 VPWR VGND sg13g2_decap_8
XFILLER_0_616 VPWR VGND sg13g2_decap_8
XFILLER_48_609 VPWR VGND sg13g2_decap_8
XFILLER_47_119 VPWR VGND sg13g2_decap_8
XFILLER_29_823 VPWR VGND sg13g2_decap_8
XFILLER_18_11 VPWR VGND sg13g2_decap_8
XFILLER_28_300 VPWR VGND sg13g2_decap_8
XFILLER_44_837 VPWR VGND sg13g2_decap_8
XFILLER_18_88 VPWR VGND sg13g2_decap_8
XFILLER_28_377 VPWR VGND sg13g2_decap_8
XFILLER_43_347 VPWR VGND sg13g2_decap_8
XFILLER_24_550 VPWR VGND sg13g2_decap_8
XFILLER_11_200 VPWR VGND sg13g2_decap_8
XFILLER_12_767 VPWR VGND sg13g2_decap_8
XFILLER_11_277 VPWR VGND sg13g2_decap_8
XFILLER_7_259 VPWR VGND sg13g2_decap_8
XFILLER_4_900 VPWR VGND sg13g2_decap_8
XFILLER_3_410 VPWR VGND sg13g2_decap_8
XFILLER_4_977 VPWR VGND sg13g2_decap_8
XFILLER_3_487 VPWR VGND sg13g2_decap_8
XFILLER_1_0 VPWR VGND sg13g2_decap_8
XFILLER_19_333 VPWR VGND sg13g2_decap_8
XFILLER_47_686 VPWR VGND sg13g2_decap_8
XFILLER_35_837 VPWR VGND sg13g2_decap_8
XFILLER_46_196 VPWR VGND sg13g2_decap_8
XFILLER_15_550 VPWR VGND sg13g2_decap_8
XFILLER_34_369 VPWR VGND sg13g2_decap_8
XFILLER_30_564 VPWR VGND sg13g2_decap_8
XFILLER_6_270 VPWR VGND sg13g2_decap_8
XFILLER_38_620 VPWR VGND sg13g2_decap_8
XFILLER_26_804 VPWR VGND sg13g2_decap_8
XFILLER_1_91 VPWR VGND sg13g2_decap_8
XFILLER_38_697 VPWR VGND sg13g2_decap_8
XFILLER_25_347 VPWR VGND sg13g2_decap_8
XFILLER_37_196 VPWR VGND sg13g2_decap_8
XFILLER_40_317 VPWR VGND sg13g2_decap_8
XFILLER_21_564 VPWR VGND sg13g2_decap_8
XFILLER_4_207 VPWR VGND sg13g2_decap_8
XFILLER_1_903 VPWR VGND sg13g2_decap_8
XFILLER_20_67 VPWR VGND sg13g2_decap_8
XFILLER_0_413 VPWR VGND sg13g2_decap_8
XFILLER_48_406 VPWR VGND sg13g2_decap_8
XFILLER_29_32 VPWR VGND sg13g2_decap_8
XFILLER_29_620 VPWR VGND sg13g2_decap_8
XFILLER_17_826 VPWR VGND sg13g2_decap_8
XFILLER_28_174 VPWR VGND sg13g2_decap_8
XFILLER_29_697 VPWR VGND sg13g2_decap_8
XFILLER_45_53 VPWR VGND sg13g2_decap_8
XFILLER_44_634 VPWR VGND sg13g2_decap_8
XFILLER_16_347 VPWR VGND sg13g2_decap_8
XFILLER_43_144 VPWR VGND sg13g2_decap_8
XFILLER_12_564 VPWR VGND sg13g2_decap_8
XFILLER_40_884 VPWR VGND sg13g2_decap_8
XFILLER_8_557 VPWR VGND sg13g2_decap_8
XFILLER_6_25 VPWR VGND sg13g2_decap_8
XFILLER_4_774 VPWR VGND sg13g2_decap_8
XFILLER_3_284 VPWR VGND sg13g2_decap_8
XFILLER_0_980 VPWR VGND sg13g2_decap_8
XFILLER_39_428 VPWR VGND sg13g2_decap_8
XFILLER_48_973 VPWR VGND sg13g2_decap_8
XFILLER_19_130 VPWR VGND sg13g2_decap_8
XFILLER_47_483 VPWR VGND sg13g2_decap_8
XFILLER_35_634 VPWR VGND sg13g2_decap_8
XFILLER_34_166 VPWR VGND sg13g2_decap_8
XFILLER_31_840 VPWR VGND sg13g2_decap_8
XFILLER_30_361 VPWR VGND sg13g2_decap_8
XFILLER_26_601 VPWR VGND sg13g2_decap_8
XFILLER_39_995 VPWR VGND sg13g2_decap_8
XFILLER_38_494 VPWR VGND sg13g2_decap_8
XFILLER_25_144 VPWR VGND sg13g2_decap_8
XFILLER_26_678 VPWR VGND sg13g2_decap_8
XFILLER_41_637 VPWR VGND sg13g2_decap_8
XFILLER_40_114 VPWR VGND sg13g2_decap_8
XFILLER_15_67 VPWR VGND sg13g2_decap_8
XFILLER_22_851 VPWR VGND sg13g2_decap_8
XFILLER_21_361 VPWR VGND sg13g2_decap_8
XFILLER_31_11 VPWR VGND sg13g2_decap_8
XFILLER_31_88 VPWR VGND sg13g2_decap_8
Xoutput22 net22 uo_out[5] VPWR VGND sg13g2_buf_1
XFILLER_1_700 VPWR VGND sg13g2_decap_8
XFILLER_0_210 VPWR VGND sg13g2_decap_8
XFILLER_1_777 VPWR VGND sg13g2_decap_8
XFILLER_48_203 VPWR VGND sg13g2_decap_8
XFILLER_0_287 VPWR VGND sg13g2_decap_8
XFILLER_45_921 VPWR VGND sg13g2_decap_8
XFILLER_44_431 VPWR VGND sg13g2_decap_8
XFILLER_17_623 VPWR VGND sg13g2_decap_8
XFILLER_29_494 VPWR VGND sg13g2_decap_8
XFILLER_45_998 VPWR VGND sg13g2_decap_8
XFILLER_16_144 VPWR VGND sg13g2_decap_8
XFILLER_31_114 VPWR VGND sg13g2_decap_8
XFILLER_32_648 VPWR VGND sg13g2_decap_8
XFILLER_13_851 VPWR VGND sg13g2_decap_8
XFILLER_31_147 VPWR VGND sg13g2_decap_8
XFILLER_9_844 VPWR VGND sg13g2_decap_8
XFILLER_12_361 VPWR VGND sg13g2_decap_8
XFILLER_40_681 VPWR VGND sg13g2_decap_8
XFILLER_8_354 VPWR VGND sg13g2_decap_8
XFILLER_4_571 VPWR VGND sg13g2_decap_8
XFILLER_39_225 VPWR VGND sg13g2_decap_8
XFILLER_48_770 VPWR VGND sg13g2_decap_8
XFILLER_36_921 VPWR VGND sg13g2_decap_8
XFILLER_47_280 VPWR VGND sg13g2_decap_8
XFILLER_35_431 VPWR VGND sg13g2_decap_8
XFILLER_36_998 VPWR VGND sg13g2_decap_8
XFILLER_23_648 VPWR VGND sg13g2_decap_8
XFILLER_22_158 VPWR VGND sg13g2_decap_8
XFILLER_11_1012 VPWR VGND sg13g2_decap_8
XFILLER_2_508 VPWR VGND sg13g2_decap_8
XFILLER_46_707 VPWR VGND sg13g2_decap_8
XFILLER_45_228 VPWR VGND sg13g2_decap_8
XFILLER_26_11 VPWR VGND sg13g2_decap_8
XFILLER_27_954 VPWR VGND sg13g2_decap_8
XFILLER_38_291 VPWR VGND sg13g2_decap_8
XFILLER_39_792 VPWR VGND sg13g2_decap_8
XFILLER_42_935 VPWR VGND sg13g2_decap_8
XFILLER_14_648 VPWR VGND sg13g2_decap_8
XFILLER_26_475 VPWR VGND sg13g2_decap_8
XFILLER_41_434 VPWR VGND sg13g2_decap_8
XFILLER_13_158 VPWR VGND sg13g2_decap_8
XFILLER_42_32 VPWR VGND sg13g2_decap_8
XFILLER_10_865 VPWR VGND sg13g2_decap_8
XFILLER_6_858 VPWR VGND sg13g2_decap_8
XFILLER_5_368 VPWR VGND sg13g2_decap_8
XFILLER_1_574 VPWR VGND sg13g2_decap_8
XFILLER_49_567 VPWR VGND sg13g2_decap_8
XFILLER_37_707 VPWR VGND sg13g2_decap_8
XFILLER_18_921 VPWR VGND sg13g2_decap_8
XFILLER_17_420 VPWR VGND sg13g2_decap_8
XFILLER_29_291 VPWR VGND sg13g2_decap_8
XFILLER_36_228 VPWR VGND sg13g2_decap_8
XFILLER_45_795 VPWR VGND sg13g2_decap_8
XFILLER_17_497 VPWR VGND sg13g2_decap_8
XFILLER_18_998 VPWR VGND sg13g2_decap_8
XFILLER_33_924 VPWR VGND sg13g2_decap_8
XFILLER_32_445 VPWR VGND sg13g2_decap_8
XFILLER_9_641 VPWR VGND sg13g2_decap_8
XFILLER_8_151 VPWR VGND sg13g2_decap_8
XFILLER_24_935 VPWR VGND sg13g2_decap_8
XFILLER_36_795 VPWR VGND sg13g2_decap_8
XFILLER_23_445 VPWR VGND sg13g2_decap_8
XFILLER_12_46 VPWR VGND sg13g2_decap_8
XFILLER_2_305 VPWR VGND sg13g2_decap_8
XFILLER_46_504 VPWR VGND sg13g2_decap_8
XFILLER_19_718 VPWR VGND sg13g2_decap_8
XFILLER_37_21 VPWR VGND sg13g2_decap_8
XFILLER_18_228 VPWR VGND sg13g2_decap_8
XFILLER_27_751 VPWR VGND sg13g2_decap_8
XFILLER_37_98 VPWR VGND sg13g2_decap_8
XFILLER_42_732 VPWR VGND sg13g2_decap_8
XFILLER_15_935 VPWR VGND sg13g2_decap_8
XFILLER_26_272 VPWR VGND sg13g2_decap_8
XFILLER_41_231 VPWR VGND sg13g2_decap_8
XFILLER_14_445 VPWR VGND sg13g2_decap_8
XFILLER_30_949 VPWR VGND sg13g2_decap_8
XFILLER_10_662 VPWR VGND sg13g2_decap_8
XFILLER_6_655 VPWR VGND sg13g2_decap_8
XFILLER_5_165 VPWR VGND sg13g2_decap_8
XFILLER_2_872 VPWR VGND sg13g2_decap_8
XFILLER_1_371 VPWR VGND sg13g2_decap_8
XFILLER_49_364 VPWR VGND sg13g2_decap_8
XFILLER_37_504 VPWR VGND sg13g2_decap_8