*SPEF "ieee 1481-1999"
*DESIGN "heichips25_example_small"
*DATE "17:13:31 Friday July 25, 2025"
*VENDOR "The OpenROAD Project"
*PROGRAM "OpenROAD"
*VERSION "341650e72dad0dc8571822ff8c5d9c5e365327f7"
*DESIGN_FLOW "NAME_SCOPE LOCAL" "PIN_CAP NONE"
*DIVIDER /
*DELIMITER :
*BUS_DELIMITER []
*T_UNIT 1 NS
*C_UNIT 1 PF
*R_UNIT 1 OHM
*L_UNIT 1 HENRY

*NAME_MAP
*3 clk
*4 ena
*5 rst_n
*6 ui_in[0]
*7 ui_in[1]
*8 ui_in[2]
*9 ui_in[3]
*10 ui_in[4]
*11 ui_in[5]
*12 ui_in[6]
*13 ui_in[7]
*14 uio_in[0]
*15 uio_in[1]
*16 uio_in[2]
*17 uio_in[3]
*18 uio_in[4]
*19 uio_in[5]
*20 uio_in[6]
*21 uio_in[7]
*22 net25
*23 net26
*24 net27
*25 net28
*26 net29
*27 net30
*28 net31
*29 net32
*30 net33
*31 net34
*32 net35
*33 net36
*34 net37
*35 net38
*36 net39
*37 net40
*38 uo_out[0]
*39 uo_out[1]
*40 uo_out[2]
*41 uo_out[3]
*42 uo_out[4]
*43 uo_out[5]
*44 uo_out[6]
*45 uo_out[7]
*46 _00_
*47 _01_
*48 _02_
*49 _03_
*50 _04_
*51 _05_
*52 _06_
*53 _07_
*54 _08_
*55 _09_
*56 _10_
*57 _11_
*58 _12_
*59 _13_
*60 _14_
*61 _15_
*62 _16_
*63 _17_
*64 _18_
*65 _19_
*66 _20_
*67 _21_
*68 _22_
*69 _23_
*70 _24_
*71 _25_
*72 _26_
*73 _27_
*74 _28_
*75 net1
*76 net10
*77 net11
*78 net12
*79 net13
*80 net14
*81 net15
*82 net16
*83 net17
*84 net18
*85 net19
*86 net2
*87 net20
*88 net21
*89 net22
*90 net23
*91 net24
*92 net3
*93 net4
*94 net5
*95 net6
*96 net7
*97 net8
*98 net9
*99 FILLER_0_0
*100 FILLER_0_1001
*101 FILLER_0_1008
*102 FILLER_0_1015
*103 FILLER_0_1022
*104 FILLER_0_105
*105 FILLER_0_112
*106 FILLER_0_119
*107 FILLER_0_126
*108 FILLER_0_133
*109 FILLER_0_14
*110 FILLER_0_140
*111 FILLER_0_147
*112 FILLER_0_154
*113 FILLER_0_161
*114 FILLER_0_168
*115 FILLER_0_175
*116 FILLER_0_182
*117 FILLER_0_189
*118 FILLER_0_196
*119 FILLER_0_203
*120 FILLER_0_21
*121 FILLER_0_210
*122 FILLER_0_217
*123 FILLER_0_224
*124 FILLER_0_231
*125 FILLER_0_238
*126 FILLER_0_245
*127 FILLER_0_252
*128 FILLER_0_259
*129 FILLER_0_266
*130 FILLER_0_273
*131 FILLER_0_28
*132 FILLER_0_280
*133 FILLER_0_287
*134 FILLER_0_294
*135 FILLER_0_301
*136 FILLER_0_308
*137 FILLER_0_315
*138 FILLER_0_322
*139 FILLER_0_329
*140 FILLER_0_336
*141 FILLER_0_343
*142 FILLER_0_35
*143 FILLER_0_350
*144 FILLER_0_357
*145 FILLER_0_364
*146 FILLER_0_371
*147 FILLER_0_378
*148 FILLER_0_385
*149 FILLER_0_392
*150 FILLER_0_399
*151 FILLER_0_406
*152 FILLER_0_413
*153 FILLER_0_42
*154 FILLER_0_420
*155 FILLER_0_427
*156 FILLER_0_434
*157 FILLER_0_441
*158 FILLER_0_448
*159 FILLER_0_455
*160 FILLER_0_462
*161 FILLER_0_469
*162 FILLER_0_476
*163 FILLER_0_483
*164 FILLER_0_49
*165 FILLER_0_490
*166 FILLER_0_497
*167 FILLER_0_504
*168 FILLER_0_511
*169 FILLER_0_518
*170 FILLER_0_525
*171 FILLER_0_532
*172 FILLER_0_539
*173 FILLER_0_546
*174 FILLER_0_553
*175 FILLER_0_56
*176 FILLER_0_560
*177 FILLER_0_567
*178 FILLER_0_574
*179 FILLER_0_581
*180 FILLER_0_588
*181 FILLER_0_595
*182 FILLER_0_602
*183 FILLER_0_609
*184 FILLER_0_616
*185 FILLER_0_623
*186 FILLER_0_63
*187 FILLER_0_630
*188 FILLER_0_637
*189 FILLER_0_644
*190 FILLER_0_651
*191 FILLER_0_658
*192 FILLER_0_665
*193 FILLER_0_672
*194 FILLER_0_679
*195 FILLER_0_686
*196 FILLER_0_693
*197 FILLER_0_7
*198 FILLER_0_70
*199 FILLER_0_700
*200 FILLER_0_707
*201 FILLER_0_714
*202 FILLER_0_721
*203 FILLER_0_728
*204 FILLER_0_735
*205 FILLER_0_742
*206 FILLER_0_749
*207 FILLER_0_756
*208 FILLER_0_763
*209 FILLER_0_77
*210 FILLER_0_770
*211 FILLER_0_777
*212 FILLER_0_784
*213 FILLER_0_791
*214 FILLER_0_798
*215 FILLER_0_805
*216 FILLER_0_812
*217 FILLER_0_819
*218 FILLER_0_826
*219 FILLER_0_833
*220 FILLER_0_84
*221 FILLER_0_840
*222 FILLER_0_847
*223 FILLER_0_854
*224 FILLER_0_861
*225 FILLER_0_868
*226 FILLER_0_875
*227 FILLER_0_882
*228 FILLER_0_889
*229 FILLER_0_896
*230 FILLER_0_903
*231 FILLER_0_91
*232 FILLER_0_910
*233 FILLER_0_917
*234 FILLER_0_924
*235 FILLER_0_931
*236 FILLER_0_938
*237 FILLER_0_945
*238 FILLER_0_952
*239 FILLER_0_959
*240 FILLER_0_966
*241 FILLER_0_973
*242 FILLER_0_98
*243 FILLER_0_980
*244 FILLER_0_987
*245 FILLER_0_994
*246 FILLER_10_1005
*247 FILLER_10_1012
*248 FILLER_10_1019
*249 FILLER_10_102
*250 FILLER_10_1026
*251 FILLER_10_1028
*252 FILLER_10_109
*253 FILLER_10_11
*254 FILLER_10_116
*255 FILLER_10_123
*256 FILLER_10_130
*257 FILLER_10_137
*258 FILLER_10_144
*259 FILLER_10_151
*260 FILLER_10_158
*261 FILLER_10_165
*262 FILLER_10_172
*263 FILLER_10_179
*264 FILLER_10_18
*265 FILLER_10_186
*266 FILLER_10_193
*267 FILLER_10_200
*268 FILLER_10_207
*269 FILLER_10_214
*270 FILLER_10_221
*271 FILLER_10_228
*272 FILLER_10_235
*273 FILLER_10_242
*274 FILLER_10_249
*275 FILLER_10_25
*276 FILLER_10_256
*277 FILLER_10_263
*278 FILLER_10_270
*279 FILLER_10_277
*280 FILLER_10_284
*281 FILLER_10_291
*282 FILLER_10_298
*283 FILLER_10_305
*284 FILLER_10_312
*285 FILLER_10_319
*286 FILLER_10_32
*287 FILLER_10_326
*288 FILLER_10_333
*289 FILLER_10_340
*290 FILLER_10_347
*291 FILLER_10_354
*292 FILLER_10_361
*293 FILLER_10_368
*294 FILLER_10_375
*295 FILLER_10_382
*296 FILLER_10_389
*297 FILLER_10_39
*298 FILLER_10_396
*299 FILLER_10_4
*300 FILLER_10_403
*301 FILLER_10_410
*302 FILLER_10_417
*303 FILLER_10_424
*304 FILLER_10_431
*305 FILLER_10_438
*306 FILLER_10_445
*307 FILLER_10_452
*308 FILLER_10_459
*309 FILLER_10_46
*310 FILLER_10_466
*311 FILLER_10_473
*312 FILLER_10_480
*313 FILLER_10_487
*314 FILLER_10_494
*315 FILLER_10_501
*316 FILLER_10_508
*317 FILLER_10_515
*318 FILLER_10_522
*319 FILLER_10_529
*320 FILLER_10_53
*321 FILLER_10_536
*322 FILLER_10_543
*323 FILLER_10_550
*324 FILLER_10_557
*325 FILLER_10_564
*326 FILLER_10_571
*327 FILLER_10_578
*328 FILLER_10_585
*329 FILLER_10_592
*330 FILLER_10_599
*331 FILLER_10_60
*332 FILLER_10_606
*333 FILLER_10_613
*334 FILLER_10_620
*335 FILLER_10_627
*336 FILLER_10_634
*337 FILLER_10_641
*338 FILLER_10_648
*339 FILLER_10_655
*340 FILLER_10_662
*341 FILLER_10_669
*342 FILLER_10_67
*343 FILLER_10_676
*344 FILLER_10_683
*345 FILLER_10_690
*346 FILLER_10_697
*347 FILLER_10_704
*348 FILLER_10_711
*349 FILLER_10_718
*350 FILLER_10_725
*351 FILLER_10_732
*352 FILLER_10_739
*353 FILLER_10_74
*354 FILLER_10_746
*355 FILLER_10_753
*356 FILLER_10_760
*357 FILLER_10_767
*358 FILLER_10_774
*359 FILLER_10_781
*360 FILLER_10_788
*361 FILLER_10_795
*362 FILLER_10_802
*363 FILLER_10_809
*364 FILLER_10_81
*365 FILLER_10_816
*366 FILLER_10_823
*367 FILLER_10_830
*368 FILLER_10_837
*369 FILLER_10_844
*370 FILLER_10_851
*371 FILLER_10_858
*372 FILLER_10_865
*373 FILLER_10_872
*374 FILLER_10_879
*375 FILLER_10_88
*376 FILLER_10_886
*377 FILLER_10_893
*378 FILLER_10_900
*379 FILLER_10_907
*380 FILLER_10_914
*381 FILLER_10_921
*382 FILLER_10_928
*383 FILLER_10_935
*384 FILLER_10_942
*385 FILLER_10_949
*386 FILLER_10_95
*387 FILLER_10_956
*388 FILLER_10_963
*389 FILLER_10_970
*390 FILLER_10_977
*391 FILLER_10_984
*392 FILLER_10_991
*393 FILLER_10_998
*394 FILLER_11_1005
*395 FILLER_11_1012
*396 FILLER_11_1019
*397 FILLER_11_102
*398 FILLER_11_1026
*399 FILLER_11_1028
*400 FILLER_11_109
*401 FILLER_11_11
*402 FILLER_11_116
*403 FILLER_11_123
*404 FILLER_11_130
*405 FILLER_11_137
*406 FILLER_11_144
*407 FILLER_11_151
*408 FILLER_11_158
*409 FILLER_11_165
*410 FILLER_11_172
*411 FILLER_11_179
*412 FILLER_11_18
*413 FILLER_11_186
*414 FILLER_11_193
*415 FILLER_11_200
*416 FILLER_11_207
*417 FILLER_11_214
*418 FILLER_11_221
*419 FILLER_11_228
*420 FILLER_11_235
*421 FILLER_11_242
*422 FILLER_11_249
*423 FILLER_11_25
*424 FILLER_11_256
*425 FILLER_11_263
*426 FILLER_11_270
*427 FILLER_11_277
*428 FILLER_11_284
*429 FILLER_11_291
*430 FILLER_11_298
*431 FILLER_11_305
*432 FILLER_11_312
*433 FILLER_11_319
*434 FILLER_11_32
*435 FILLER_11_326
*436 FILLER_11_333
*437 FILLER_11_340
*438 FILLER_11_347
*439 FILLER_11_354
*440 FILLER_11_361
*441 FILLER_11_368
*442 FILLER_11_375
*443 FILLER_11_382
*444 FILLER_11_389
*445 FILLER_11_39
*446 FILLER_11_396
*447 FILLER_11_4
*448 FILLER_11_403
*449 FILLER_11_410
*450 FILLER_11_417
*451 FILLER_11_424
*452 FILLER_11_431
*453 FILLER_11_438
*454 FILLER_11_445
*455 FILLER_11_452
*456 FILLER_11_459
*457 FILLER_11_46
*458 FILLER_11_466
*459 FILLER_11_473
*460 FILLER_11_480
*461 FILLER_11_487
*462 FILLER_11_494
*463 FILLER_11_501
*464 FILLER_11_508
*465 FILLER_11_515
*466 FILLER_11_522
*467 FILLER_11_529
*468 FILLER_11_53
*469 FILLER_11_536
*470 FILLER_11_543
*471 FILLER_11_550
*472 FILLER_11_557
*473 FILLER_11_564
*474 FILLER_11_571
*475 FILLER_11_578
*476 FILLER_11_585
*477 FILLER_11_592
*478 FILLER_11_599
*479 FILLER_11_60
*480 FILLER_11_606
*481 FILLER_11_613
*482 FILLER_11_620
*483 FILLER_11_627
*484 FILLER_11_634
*485 FILLER_11_641
*486 FILLER_11_648
*487 FILLER_11_655
*488 FILLER_11_662
*489 FILLER_11_669
*490 FILLER_11_67
*491 FILLER_11_676
*492 FILLER_11_683
*493 FILLER_11_690
*494 FILLER_11_697
*495 FILLER_11_704
*496 FILLER_11_711
*497 FILLER_11_718
*498 FILLER_11_725
*499 FILLER_11_732
*500 FILLER_11_739
*501 FILLER_11_74
*502 FILLER_11_746
*503 FILLER_11_753
*504 FILLER_11_760
*505 FILLER_11_767
*506 FILLER_11_774
*507 FILLER_11_781
*508 FILLER_11_788
*509 FILLER_11_795
*510 FILLER_11_802
*511 FILLER_11_809
*512 FILLER_11_81
*513 FILLER_11_816
*514 FILLER_11_823
*515 FILLER_11_830
*516 FILLER_11_837
*517 FILLER_11_844
*518 FILLER_11_851
*519 FILLER_11_858
*520 FILLER_11_865
*521 FILLER_11_872
*522 FILLER_11_879
*523 FILLER_11_88
*524 FILLER_11_886
*525 FILLER_11_893
*526 FILLER_11_900
*527 FILLER_11_907
*528 FILLER_11_914
*529 FILLER_11_921
*530 FILLER_11_928
*531 FILLER_11_935
*532 FILLER_11_942
*533 FILLER_11_949
*534 FILLER_11_95
*535 FILLER_11_956
*536 FILLER_11_963
*537 FILLER_11_970
*538 FILLER_11_977
*539 FILLER_11_984
*540 FILLER_11_991
*541 FILLER_11_998
*542 FILLER_12_1005
*543 FILLER_12_1012
*544 FILLER_12_1019
*545 FILLER_12_102
*546 FILLER_12_1026
*547 FILLER_12_1028
*548 FILLER_12_109
*549 FILLER_12_11
*550 FILLER_12_116
*551 FILLER_12_123
*552 FILLER_12_130
*553 FILLER_12_137
*554 FILLER_12_144
*555 FILLER_12_151
*556 FILLER_12_158
*557 FILLER_12_165
*558 FILLER_12_172
*559 FILLER_12_179
*560 FILLER_12_18
*561 FILLER_12_186
*562 FILLER_12_193
*563 FILLER_12_200
*564 FILLER_12_207
*565 FILLER_12_214
*566 FILLER_12_221
*567 FILLER_12_228
*568 FILLER_12_235
*569 FILLER_12_242
*570 FILLER_12_249
*571 FILLER_12_25
*572 FILLER_12_256
*573 FILLER_12_263
*574 FILLER_12_270
*575 FILLER_12_277
*576 FILLER_12_284
*577 FILLER_12_291
*578 FILLER_12_298
*579 FILLER_12_305
*580 FILLER_12_312
*581 FILLER_12_319
*582 FILLER_12_32
*583 FILLER_12_326
*584 FILLER_12_333
*585 FILLER_12_340
*586 FILLER_12_347
*587 FILLER_12_354
*588 FILLER_12_361
*589 FILLER_12_368
*590 FILLER_12_375
*591 FILLER_12_382
*592 FILLER_12_389
*593 FILLER_12_39
*594 FILLER_12_396
*595 FILLER_12_4
*596 FILLER_12_403
*597 FILLER_12_410
*598 FILLER_12_417
*599 FILLER_12_424
*600 FILLER_12_431
*601 FILLER_12_438
*602 FILLER_12_445
*603 FILLER_12_452
*604 FILLER_12_459
*605 FILLER_12_46
*606 FILLER_12_466
*607 FILLER_12_473
*608 FILLER_12_480
*609 FILLER_12_487
*610 FILLER_12_494
*611 FILLER_12_501
*612 FILLER_12_508
*613 FILLER_12_515
*614 FILLER_12_522
*615 FILLER_12_529
*616 FILLER_12_53
*617 FILLER_12_536
*618 FILLER_12_543
*619 FILLER_12_550
*620 FILLER_12_557
*621 FILLER_12_564
*622 FILLER_12_571
*623 FILLER_12_578
*624 FILLER_12_585
*625 FILLER_12_592
*626 FILLER_12_599
*627 FILLER_12_60
*628 FILLER_12_606
*629 FILLER_12_613
*630 FILLER_12_620
*631 FILLER_12_627
*632 FILLER_12_634
*633 FILLER_12_641
*634 FILLER_12_648
*635 FILLER_12_655
*636 FILLER_12_662
*637 FILLER_12_669
*638 FILLER_12_67
*639 FILLER_12_676
*640 FILLER_12_683
*641 FILLER_12_690
*642 FILLER_12_697
*643 FILLER_12_704
*644 FILLER_12_711
*645 FILLER_12_718
*646 FILLER_12_725
*647 FILLER_12_732
*648 FILLER_12_739
*649 FILLER_12_74
*650 FILLER_12_746
*651 FILLER_12_753
*652 FILLER_12_760
*653 FILLER_12_767
*654 FILLER_12_774
*655 FILLER_12_781
*656 FILLER_12_788
*657 FILLER_12_795
*658 FILLER_12_802
*659 FILLER_12_809
*660 FILLER_12_81
*661 FILLER_12_816
*662 FILLER_12_823
*663 FILLER_12_830
*664 FILLER_12_837
*665 FILLER_12_844
*666 FILLER_12_851
*667 FILLER_12_858
*668 FILLER_12_865
*669 FILLER_12_872
*670 FILLER_12_879
*671 FILLER_12_88
*672 FILLER_12_886
*673 FILLER_12_893
*674 FILLER_12_900
*675 FILLER_12_907
*676 FILLER_12_914
*677 FILLER_12_921
*678 FILLER_12_928
*679 FILLER_12_935
*680 FILLER_12_942
*681 FILLER_12_949
*682 FILLER_12_95
*683 FILLER_12_956
*684 FILLER_12_963
*685 FILLER_12_970
*686 FILLER_12_977
*687 FILLER_12_984
*688 FILLER_12_991
*689 FILLER_12_998
*690 FILLER_13_1005
*691 FILLER_13_1012
*692 FILLER_13_1019
*693 FILLER_13_102
*694 FILLER_13_1026
*695 FILLER_13_1028
*696 FILLER_13_109
*697 FILLER_13_11
*698 FILLER_13_116
*699 FILLER_13_123
*700 FILLER_13_130
*701 FILLER_13_137
*702 FILLER_13_144
*703 FILLER_13_151
*704 FILLER_13_158
*705 FILLER_13_165
*706 FILLER_13_172
*707 FILLER_13_179
*708 FILLER_13_18
*709 FILLER_13_186
*710 FILLER_13_193
*711 FILLER_13_200
*712 FILLER_13_207
*713 FILLER_13_214
*714 FILLER_13_221
*715 FILLER_13_228
*716 FILLER_13_235
*717 FILLER_13_242
*718 FILLER_13_249
*719 FILLER_13_25
*720 FILLER_13_256
*721 FILLER_13_263
*722 FILLER_13_270
*723 FILLER_13_277
*724 FILLER_13_284
*725 FILLER_13_291
*726 FILLER_13_298
*727 FILLER_13_305
*728 FILLER_13_312
*729 FILLER_13_319
*730 FILLER_13_32
*731 FILLER_13_326
*732 FILLER_13_333
*733 FILLER_13_340
*734 FILLER_13_347
*735 FILLER_13_354
*736 FILLER_13_361
*737 FILLER_13_368
*738 FILLER_13_375
*739 FILLER_13_382
*740 FILLER_13_389
*741 FILLER_13_39
*742 FILLER_13_396
*743 FILLER_13_4
*744 FILLER_13_403
*745 FILLER_13_410
*746 FILLER_13_417
*747 FILLER_13_424
*748 FILLER_13_431
*749 FILLER_13_438
*750 FILLER_13_445
*751 FILLER_13_452
*752 FILLER_13_459
*753 FILLER_13_46
*754 FILLER_13_466
*755 FILLER_13_473
*756 FILLER_13_480
*757 FILLER_13_487
*758 FILLER_13_494
*759 FILLER_13_501
*760 FILLER_13_508
*761 FILLER_13_515
*762 FILLER_13_522
*763 FILLER_13_529
*764 FILLER_13_53
*765 FILLER_13_536
*766 FILLER_13_543
*767 FILLER_13_550
*768 FILLER_13_557
*769 FILLER_13_564
*770 FILLER_13_571
*771 FILLER_13_578
*772 FILLER_13_585
*773 FILLER_13_592
*774 FILLER_13_599
*775 FILLER_13_60
*776 FILLER_13_606
*777 FILLER_13_613
*778 FILLER_13_620
*779 FILLER_13_627
*780 FILLER_13_634
*781 FILLER_13_641
*782 FILLER_13_648
*783 FILLER_13_655
*784 FILLER_13_662
*785 FILLER_13_669
*786 FILLER_13_67
*787 FILLER_13_676
*788 FILLER_13_683
*789 FILLER_13_690
*790 FILLER_13_697
*791 FILLER_13_704
*792 FILLER_13_711
*793 FILLER_13_718
*794 FILLER_13_725
*795 FILLER_13_732
*796 FILLER_13_739
*797 FILLER_13_74
*798 FILLER_13_746
*799 FILLER_13_753
*800 FILLER_13_760
*801 FILLER_13_767
*802 FILLER_13_774
*803 FILLER_13_781
*804 FILLER_13_788
*805 FILLER_13_795
*806 FILLER_13_802
*807 FILLER_13_809
*808 FILLER_13_81
*809 FILLER_13_816
*810 FILLER_13_823
*811 FILLER_13_830
*812 FILLER_13_837
*813 FILLER_13_844
*814 FILLER_13_851
*815 FILLER_13_858
*816 FILLER_13_865
*817 FILLER_13_872
*818 FILLER_13_879
*819 FILLER_13_88
*820 FILLER_13_886
*821 FILLER_13_893
*822 FILLER_13_900
*823 FILLER_13_907
*824 FILLER_13_914
*825 FILLER_13_921
*826 FILLER_13_928
*827 FILLER_13_935
*828 FILLER_13_942
*829 FILLER_13_949
*830 FILLER_13_95
*831 FILLER_13_956
*832 FILLER_13_963
*833 FILLER_13_970
*834 FILLER_13_977
*835 FILLER_13_984
*836 FILLER_13_991
*837 FILLER_13_998
*838 FILLER_14_1005
*839 FILLER_14_1012
*840 FILLER_14_1019
*841 FILLER_14_102
*842 FILLER_14_1026
*843 FILLER_14_1028
*844 FILLER_14_109
*845 FILLER_14_11
*846 FILLER_14_116
*847 FILLER_14_123
*848 FILLER_14_130
*849 FILLER_14_137
*850 FILLER_14_144
*851 FILLER_14_151
*852 FILLER_14_158
*853 FILLER_14_165
*854 FILLER_14_172
*855 FILLER_14_179
*856 FILLER_14_18
*857 FILLER_14_186
*858 FILLER_14_193
*859 FILLER_14_200
*860 FILLER_14_207
*861 FILLER_14_214
*862 FILLER_14_221
*863 FILLER_14_228
*864 FILLER_14_235
*865 FILLER_14_242
*866 FILLER_14_249
*867 FILLER_14_25
*868 FILLER_14_256
*869 FILLER_14_263
*870 FILLER_14_270
*871 FILLER_14_277
*872 FILLER_14_284
*873 FILLER_14_291
*874 FILLER_14_298
*875 FILLER_14_305
*876 FILLER_14_312
*877 FILLER_14_319
*878 FILLER_14_32
*879 FILLER_14_326
*880 FILLER_14_333
*881 FILLER_14_340
*882 FILLER_14_347
*883 FILLER_14_354
*884 FILLER_14_361
*885 FILLER_14_368
*886 FILLER_14_375
*887 FILLER_14_382
*888 FILLER_14_389
*889 FILLER_14_39
*890 FILLER_14_396
*891 FILLER_14_4
*892 FILLER_14_403
*893 FILLER_14_410
*894 FILLER_14_417
*895 FILLER_14_424
*896 FILLER_14_431
*897 FILLER_14_438
*898 FILLER_14_445
*899 FILLER_14_452
*900 FILLER_14_459
*901 FILLER_14_46
*902 FILLER_14_466
*903 FILLER_14_473
*904 FILLER_14_480
*905 FILLER_14_487
*906 FILLER_14_494
*907 FILLER_14_501
*908 FILLER_14_508
*909 FILLER_14_515
*910 FILLER_14_522
*911 FILLER_14_529
*912 FILLER_14_53
*913 FILLER_14_536
*914 FILLER_14_543
*915 FILLER_14_550
*916 FILLER_14_557
*917 FILLER_14_564
*918 FILLER_14_571
*919 FILLER_14_578
*920 FILLER_14_585
*921 FILLER_14_592
*922 FILLER_14_599
*923 FILLER_14_60
*924 FILLER_14_606
*925 FILLER_14_613
*926 FILLER_14_620
*927 FILLER_14_627
*928 FILLER_14_634
*929 FILLER_14_641
*930 FILLER_14_648
*931 FILLER_14_655
*932 FILLER_14_662
*933 FILLER_14_669
*934 FILLER_14_67
*935 FILLER_14_676
*936 FILLER_14_683
*937 FILLER_14_690
*938 FILLER_14_697
*939 FILLER_14_704
*940 FILLER_14_711
*941 FILLER_14_718
*942 FILLER_14_725
*943 FILLER_14_732
*944 FILLER_14_739
*945 FILLER_14_74
*946 FILLER_14_746
*947 FILLER_14_753
*948 FILLER_14_760
*949 FILLER_14_767
*950 FILLER_14_774
*951 FILLER_14_781
*952 FILLER_14_788
*953 FILLER_14_795
*954 FILLER_14_802
*955 FILLER_14_809
*956 FILLER_14_81
*957 FILLER_14_816
*958 FILLER_14_823
*959 FILLER_14_830
*960 FILLER_14_837
*961 FILLER_14_844
*962 FILLER_14_851
*963 FILLER_14_858
*964 FILLER_14_865
*965 FILLER_14_872
*966 FILLER_14_879
*967 FILLER_14_88
*968 FILLER_14_886
*969 FILLER_14_893
*970 FILLER_14_900
*971 FILLER_14_907
*972 FILLER_14_914
*973 FILLER_14_921
*974 FILLER_14_928
*975 FILLER_14_935
*976 FILLER_14_942
*977 FILLER_14_949
*978 FILLER_14_95
*979 FILLER_14_956
*980 FILLER_14_963
*981 FILLER_14_970
*982 FILLER_14_977
*983 FILLER_14_984
*984 FILLER_14_991
*985 FILLER_14_998
*986 FILLER_15_1005
*987 FILLER_15_1012
*988 FILLER_15_1019
*989 FILLER_15_102
*990 FILLER_15_1026
*991 FILLER_15_1028
*992 FILLER_15_109
*993 FILLER_15_11
*994 FILLER_15_116
*995 FILLER_15_123
*996 FILLER_15_130
*997 FILLER_15_137
*998 FILLER_15_144
*999 FILLER_15_151
*1000 FILLER_15_158
*1001 FILLER_15_165
*1002 FILLER_15_172
*1003 FILLER_15_179
*1004 FILLER_15_18
*1005 FILLER_15_186
*1006 FILLER_15_193
*1007 FILLER_15_200
*1008 FILLER_15_207
*1009 FILLER_15_214
*1010 FILLER_15_221
*1011 FILLER_15_228
*1012 FILLER_15_235
*1013 FILLER_15_242
*1014 FILLER_15_249
*1015 FILLER_15_25
*1016 FILLER_15_256
*1017 FILLER_15_263
*1018 FILLER_15_270
*1019 FILLER_15_277
*1020 FILLER_15_284
*1021 FILLER_15_291
*1022 FILLER_15_298
*1023 FILLER_15_305
*1024 FILLER_15_312
*1025 FILLER_15_319
*1026 FILLER_15_32
*1027 FILLER_15_326
*1028 FILLER_15_333
*1029 FILLER_15_340
*1030 FILLER_15_347
*1031 FILLER_15_354
*1032 FILLER_15_361
*1033 FILLER_15_368
*1034 FILLER_15_375
*1035 FILLER_15_382
*1036 FILLER_15_389
*1037 FILLER_15_39
*1038 FILLER_15_396
*1039 FILLER_15_4
*1040 FILLER_15_403
*1041 FILLER_15_410
*1042 FILLER_15_417
*1043 FILLER_15_424
*1044 FILLER_15_431
*1045 FILLER_15_438
*1046 FILLER_15_445
*1047 FILLER_15_452
*1048 FILLER_15_459
*1049 FILLER_15_46
*1050 FILLER_15_466
*1051 FILLER_15_473
*1052 FILLER_15_480
*1053 FILLER_15_487
*1054 FILLER_15_494
*1055 FILLER_15_501
*1056 FILLER_15_508
*1057 FILLER_15_515
*1058 FILLER_15_522
*1059 FILLER_15_529
*1060 FILLER_15_53
*1061 FILLER_15_536
*1062 FILLER_15_543
*1063 FILLER_15_550
*1064 FILLER_15_557
*1065 FILLER_15_564
*1066 FILLER_15_571
*1067 FILLER_15_578
*1068 FILLER_15_585
*1069 FILLER_15_592
*1070 FILLER_15_599
*1071 FILLER_15_60
*1072 FILLER_15_606
*1073 FILLER_15_613
*1074 FILLER_15_620
*1075 FILLER_15_627
*1076 FILLER_15_634
*1077 FILLER_15_641
*1078 FILLER_15_648
*1079 FILLER_15_655
*1080 FILLER_15_662
*1081 FILLER_15_669
*1082 FILLER_15_67
*1083 FILLER_15_676
*1084 FILLER_15_683
*1085 FILLER_15_690
*1086 FILLER_15_697
*1087 FILLER_15_704
*1088 FILLER_15_711
*1089 FILLER_15_718
*1090 FILLER_15_725
*1091 FILLER_15_732
*1092 FILLER_15_739
*1093 FILLER_15_74
*1094 FILLER_15_746
*1095 FILLER_15_753
*1096 FILLER_15_760
*1097 FILLER_15_767
*1098 FILLER_15_774
*1099 FILLER_15_781
*1100 FILLER_15_788
*1101 FILLER_15_795
*1102 FILLER_15_802
*1103 FILLER_15_809
*1104 FILLER_15_81
*1105 FILLER_15_816
*1106 FILLER_15_823
*1107 FILLER_15_830
*1108 FILLER_15_837
*1109 FILLER_15_844
*1110 FILLER_15_851
*1111 FILLER_15_858
*1112 FILLER_15_865
*1113 FILLER_15_872
*1114 FILLER_15_879
*1115 FILLER_15_88
*1116 FILLER_15_886
*1117 FILLER_15_893
*1118 FILLER_15_900
*1119 FILLER_15_907
*1120 FILLER_15_914
*1121 FILLER_15_921
*1122 FILLER_15_928
*1123 FILLER_15_935
*1124 FILLER_15_942
*1125 FILLER_15_949
*1126 FILLER_15_95
*1127 FILLER_15_956
*1128 FILLER_15_963
*1129 FILLER_15_970
*1130 FILLER_15_977
*1131 FILLER_15_984
*1132 FILLER_15_991
*1133 FILLER_15_998
*1134 FILLER_16_1005
*1135 FILLER_16_1012
*1136 FILLER_16_1019
*1137 FILLER_16_102
*1138 FILLER_16_1026
*1139 FILLER_16_1028
*1140 FILLER_16_109
*1141 FILLER_16_11
*1142 FILLER_16_116
*1143 FILLER_16_123
*1144 FILLER_16_130
*1145 FILLER_16_137
*1146 FILLER_16_144
*1147 FILLER_16_151
*1148 FILLER_16_158
*1149 FILLER_16_165
*1150 FILLER_16_172
*1151 FILLER_16_179
*1152 FILLER_16_18
*1153 FILLER_16_186
*1154 FILLER_16_193
*1155 FILLER_16_200
*1156 FILLER_16_207
*1157 FILLER_16_214
*1158 FILLER_16_221
*1159 FILLER_16_228
*1160 FILLER_16_235
*1161 FILLER_16_242
*1162 FILLER_16_249
*1163 FILLER_16_25
*1164 FILLER_16_256
*1165 FILLER_16_263
*1166 FILLER_16_270
*1167 FILLER_16_277
*1168 FILLER_16_284
*1169 FILLER_16_291
*1170 FILLER_16_298
*1171 FILLER_16_305
*1172 FILLER_16_312
*1173 FILLER_16_319
*1174 FILLER_16_32
*1175 FILLER_16_326
*1176 FILLER_16_333
*1177 FILLER_16_340
*1178 FILLER_16_347
*1179 FILLER_16_354
*1180 FILLER_16_361
*1181 FILLER_16_368
*1182 FILLER_16_375
*1183 FILLER_16_382
*1184 FILLER_16_389
*1185 FILLER_16_39
*1186 FILLER_16_396
*1187 FILLER_16_4
*1188 FILLER_16_403
*1189 FILLER_16_410
*1190 FILLER_16_417
*1191 FILLER_16_424
*1192 FILLER_16_431
*1193 FILLER_16_438
*1194 FILLER_16_445
*1195 FILLER_16_452
*1196 FILLER_16_459
*1197 FILLER_16_46
*1198 FILLER_16_466
*1199 FILLER_16_473
*1200 FILLER_16_480
*1201 FILLER_16_487
*1202 FILLER_16_494
*1203 FILLER_16_501
*1204 FILLER_16_508
*1205 FILLER_16_515
*1206 FILLER_16_522
*1207 FILLER_16_529
*1208 FILLER_16_53
*1209 FILLER_16_536
*1210 FILLER_16_543
*1211 FILLER_16_550
*1212 FILLER_16_557
*1213 FILLER_16_564
*1214 FILLER_16_571
*1215 FILLER_16_578
*1216 FILLER_16_585
*1217 FILLER_16_592
*1218 FILLER_16_599
*1219 FILLER_16_60
*1220 FILLER_16_606
*1221 FILLER_16_613
*1222 FILLER_16_620
*1223 FILLER_16_627
*1224 FILLER_16_634
*1225 FILLER_16_641
*1226 FILLER_16_648
*1227 FILLER_16_655
*1228 FILLER_16_662
*1229 FILLER_16_669
*1230 FILLER_16_67
*1231 FILLER_16_676
*1232 FILLER_16_683
*1233 FILLER_16_690
*1234 FILLER_16_697
*1235 FILLER_16_704
*1236 FILLER_16_711
*1237 FILLER_16_718
*1238 FILLER_16_725
*1239 FILLER_16_732
*1240 FILLER_16_739
*1241 FILLER_16_74
*1242 FILLER_16_746
*1243 FILLER_16_753
*1244 FILLER_16_760
*1245 FILLER_16_767
*1246 FILLER_16_774
*1247 FILLER_16_781
*1248 FILLER_16_788
*1249 FILLER_16_795
*1250 FILLER_16_802
*1251 FILLER_16_809
*1252 FILLER_16_81
*1253 FILLER_16_816
*1254 FILLER_16_823
*1255 FILLER_16_830
*1256 FILLER_16_837
*1257 FILLER_16_844
*1258 FILLER_16_851
*1259 FILLER_16_858
*1260 FILLER_16_865
*1261 FILLER_16_872
*1262 FILLER_16_879
*1263 FILLER_16_88
*1264 FILLER_16_886
*1265 FILLER_16_893
*1266 FILLER_16_900
*1267 FILLER_16_907
*1268 FILLER_16_914
*1269 FILLER_16_921
*1270 FILLER_16_928
*1271 FILLER_16_935
*1272 FILLER_16_942
*1273 FILLER_16_949
*1274 FILLER_16_95
*1275 FILLER_16_956
*1276 FILLER_16_963
*1277 FILLER_16_970
*1278 FILLER_16_977
*1279 FILLER_16_984
*1280 FILLER_16_991
*1281 FILLER_16_998
*1282 FILLER_17_0
*1283 FILLER_17_1001
*1284 FILLER_17_1008
*1285 FILLER_17_1015
*1286 FILLER_17_1022
*1287 FILLER_17_105
*1288 FILLER_17_112
*1289 FILLER_17_119
*1290 FILLER_17_126
*1291 FILLER_17_133
*1292 FILLER_17_14
*1293 FILLER_17_140
*1294 FILLER_17_147
*1295 FILLER_17_154
*1296 FILLER_17_161
*1297 FILLER_17_168
*1298 FILLER_17_175
*1299 FILLER_17_182
*1300 FILLER_17_189
*1301 FILLER_17_196
*1302 FILLER_17_203
*1303 FILLER_17_21
*1304 FILLER_17_210
*1305 FILLER_17_217
*1306 FILLER_17_224
*1307 FILLER_17_231
*1308 FILLER_17_238
*1309 FILLER_17_245
*1310 FILLER_17_252
*1311 FILLER_17_259
*1312 FILLER_17_266
*1313 FILLER_17_273
*1314 FILLER_17_28
*1315 FILLER_17_280
*1316 FILLER_17_287
*1317 FILLER_17_294
*1318 FILLER_17_301
*1319 FILLER_17_308
*1320 FILLER_17_315
*1321 FILLER_17_322
*1322 FILLER_17_329
*1323 FILLER_17_336
*1324 FILLER_17_343
*1325 FILLER_17_35
*1326 FILLER_17_350
*1327 FILLER_17_357
*1328 FILLER_17_364
*1329 FILLER_17_371
*1330 FILLER_17_378
*1331 FILLER_17_385
*1332 FILLER_17_392
*1333 FILLER_17_399
*1334 FILLER_17_406
*1335 FILLER_17_413
*1336 FILLER_17_42
*1337 FILLER_17_420
*1338 FILLER_17_427
*1339 FILLER_17_434
*1340 FILLER_17_441
*1341 FILLER_17_448
*1342 FILLER_17_455
*1343 FILLER_17_462
*1344 FILLER_17_469
*1345 FILLER_17_476
*1346 FILLER_17_483
*1347 FILLER_17_49
*1348 FILLER_17_490
*1349 FILLER_17_497
*1350 FILLER_17_504
*1351 FILLER_17_511
*1352 FILLER_17_518
*1353 FILLER_17_525
*1354 FILLER_17_532
*1355 FILLER_17_539
*1356 FILLER_17_546
*1357 FILLER_17_553
*1358 FILLER_17_56
*1359 FILLER_17_560
*1360 FILLER_17_567
*1361 FILLER_17_574
*1362 FILLER_17_581
*1363 FILLER_17_588
*1364 FILLER_17_595
*1365 FILLER_17_602
*1366 FILLER_17_609
*1367 FILLER_17_616
*1368 FILLER_17_623
*1369 FILLER_17_63
*1370 FILLER_17_630
*1371 FILLER_17_637
*1372 FILLER_17_644
*1373 FILLER_17_651
*1374 FILLER_17_658
*1375 FILLER_17_665
*1376 FILLER_17_672
*1377 FILLER_17_679
*1378 FILLER_17_686
*1379 FILLER_17_693
*1380 FILLER_17_7
*1381 FILLER_17_70
*1382 FILLER_17_700
*1383 FILLER_17_707
*1384 FILLER_17_714
*1385 FILLER_17_721
*1386 FILLER_17_728
*1387 FILLER_17_735
*1388 FILLER_17_742
*1389 FILLER_17_749
*1390 FILLER_17_756
*1391 FILLER_17_763
*1392 FILLER_17_77
*1393 FILLER_17_770
*1394 FILLER_17_777
*1395 FILLER_17_784
*1396 FILLER_17_791
*1397 FILLER_17_798
*1398 FILLER_17_805
*1399 FILLER_17_812
*1400 FILLER_17_819
*1401 FILLER_17_826
*1402 FILLER_17_833
*1403 FILLER_17_84
*1404 FILLER_17_840
*1405 FILLER_17_847
*1406 FILLER_17_854
*1407 FILLER_17_861
*1408 FILLER_17_868
*1409 FILLER_17_875
*1410 FILLER_17_882
*1411 FILLER_17_889
*1412 FILLER_17_896
*1413 FILLER_17_903
*1414 FILLER_17_91
*1415 FILLER_17_910
*1416 FILLER_17_917
*1417 FILLER_17_924
*1418 FILLER_17_931
*1419 FILLER_17_938
*1420 FILLER_17_945
*1421 FILLER_17_952
*1422 FILLER_17_959
*1423 FILLER_17_966
*1424 FILLER_17_973
*1425 FILLER_17_98
*1426 FILLER_17_980
*1427 FILLER_17_987
*1428 FILLER_17_994
*1429 FILLER_18_1005
*1430 FILLER_18_1012
*1431 FILLER_18_1019
*1432 FILLER_18_102
*1433 FILLER_18_1026
*1434 FILLER_18_1028
*1435 FILLER_18_109
*1436 FILLER_18_11
*1437 FILLER_18_116
*1438 FILLER_18_123
*1439 FILLER_18_130
*1440 FILLER_18_137
*1441 FILLER_18_144
*1442 FILLER_18_151
*1443 FILLER_18_158
*1444 FILLER_18_165
*1445 FILLER_18_172
*1446 FILLER_18_179
*1447 FILLER_18_18
*1448 FILLER_18_186
*1449 FILLER_18_193
*1450 FILLER_18_200
*1451 FILLER_18_207
*1452 FILLER_18_214
*1453 FILLER_18_221
*1454 FILLER_18_228
*1455 FILLER_18_235
*1456 FILLER_18_242
*1457 FILLER_18_249
*1458 FILLER_18_25
*1459 FILLER_18_256
*1460 FILLER_18_263
*1461 FILLER_18_270
*1462 FILLER_18_277
*1463 FILLER_18_284
*1464 FILLER_18_291
*1465 FILLER_18_298
*1466 FILLER_18_305
*1467 FILLER_18_312
*1468 FILLER_18_319
*1469 FILLER_18_32
*1470 FILLER_18_326
*1471 FILLER_18_333
*1472 FILLER_18_340
*1473 FILLER_18_347
*1474 FILLER_18_354
*1475 FILLER_18_361
*1476 FILLER_18_368
*1477 FILLER_18_375
*1478 FILLER_18_382
*1479 FILLER_18_389
*1480 FILLER_18_39
*1481 FILLER_18_396
*1482 FILLER_18_4
*1483 FILLER_18_403
*1484 FILLER_18_410
*1485 FILLER_18_417
*1486 FILLER_18_424
*1487 FILLER_18_431
*1488 FILLER_18_438
*1489 FILLER_18_445
*1490 FILLER_18_452
*1491 FILLER_18_459
*1492 FILLER_18_46
*1493 FILLER_18_466
*1494 FILLER_18_473
*1495 FILLER_18_480
*1496 FILLER_18_487
*1497 FILLER_18_494
*1498 FILLER_18_501
*1499 FILLER_18_508
*1500 FILLER_18_515
*1501 FILLER_18_522
*1502 FILLER_18_529
*1503 FILLER_18_53
*1504 FILLER_18_536
*1505 FILLER_18_543
*1506 FILLER_18_550
*1507 FILLER_18_557
*1508 FILLER_18_564
*1509 FILLER_18_571
*1510 FILLER_18_578
*1511 FILLER_18_585
*1512 FILLER_18_592
*1513 FILLER_18_599
*1514 FILLER_18_60
*1515 FILLER_18_606
*1516 FILLER_18_613
*1517 FILLER_18_620
*1518 FILLER_18_627
*1519 FILLER_18_634
*1520 FILLER_18_641
*1521 FILLER_18_648
*1522 FILLER_18_655
*1523 FILLER_18_662
*1524 FILLER_18_669
*1525 FILLER_18_67
*1526 FILLER_18_676
*1527 FILLER_18_683
*1528 FILLER_18_690
*1529 FILLER_18_697
*1530 FILLER_18_704
*1531 FILLER_18_711
*1532 FILLER_18_718
*1533 FILLER_18_725
*1534 FILLER_18_732
*1535 FILLER_18_739
*1536 FILLER_18_74
*1537 FILLER_18_746
*1538 FILLER_18_753
*1539 FILLER_18_760
*1540 FILLER_18_767
*1541 FILLER_18_774
*1542 FILLER_18_781
*1543 FILLER_18_788
*1544 FILLER_18_795
*1545 FILLER_18_802
*1546 FILLER_18_809
*1547 FILLER_18_81
*1548 FILLER_18_816
*1549 FILLER_18_823
*1550 FILLER_18_830
*1551 FILLER_18_837
*1552 FILLER_18_844
*1553 FILLER_18_851
*1554 FILLER_18_858
*1555 FILLER_18_865
*1556 FILLER_18_872
*1557 FILLER_18_879
*1558 FILLER_18_88
*1559 FILLER_18_886
*1560 FILLER_18_893
*1561 FILLER_18_900
*1562 FILLER_18_907
*1563 FILLER_18_914
*1564 FILLER_18_921
*1565 FILLER_18_928
*1566 FILLER_18_935
*1567 FILLER_18_942
*1568 FILLER_18_949
*1569 FILLER_18_95
*1570 FILLER_18_956
*1571 FILLER_18_963
*1572 FILLER_18_970
*1573 FILLER_18_977
*1574 FILLER_18_984
*1575 FILLER_18_991
*1576 FILLER_18_998
*1577 FILLER_19_1005
*1578 FILLER_19_1012
*1579 FILLER_19_1019
*1580 FILLER_19_102
*1581 FILLER_19_1026
*1582 FILLER_19_1028
*1583 FILLER_19_109
*1584 FILLER_19_11
*1585 FILLER_19_116
*1586 FILLER_19_123
*1587 FILLER_19_130