*SPEF "ieee 1481-1999"
*DESIGN "N_IO"
*DATE "12:21:15 Thursday July 17, 2025"
*VENDOR "The OpenROAD Project"
*PROGRAM "OpenROAD"
*VERSION "341650e72dad0dc8571822ff8c5d9c5e365327f7"
*DESIGN_FLOW "NAME_SCOPE LOCAL" "PIN_CAP NONE"
*DIVIDER /
*DELIMITER :
*BUS_DELIMITER []
*T_UNIT 1 NS
*C_UNIT 1 PF
*R_UNIT 1 OHM
*L_UNIT 1 HENRY

*NAME_MAP
*1 A_I_top
*2 A_O_top
*3 A_T_top
*4 A_config_C_bit0
*5 A_config_C_bit1
*6 A_config_C_bit2
*7 A_config_C_bit3
*8 B_I_top
*9 B_O_top
*10 B_T_top
*11 B_config_C_bit0
*12 B_config_C_bit1
*13 B_config_C_bit2
*14 B_config_C_bit3
*15 Ci
*16 FrameData[0]
*17 FrameData[10]
*18 FrameData[11]
*19 FrameData[12]
*20 FrameData[13]
*21 FrameData[14]
*22 FrameData[15]
*23 FrameData[16]
*24 FrameData[17]
*25 FrameData[18]
*26 FrameData[19]
*27 FrameData[1]
*28 FrameData[20]
*29 FrameData[21]
*30 FrameData[22]
*31 FrameData[23]
*32 FrameData[24]
*33 FrameData[25]
*34 FrameData[26]
*35 FrameData[27]
*36 FrameData[28]
*37 FrameData[29]
*38 FrameData[2]
*39 FrameData[30]
*40 FrameData[31]
*41 FrameData[3]
*42 FrameData[4]
*43 FrameData[5]
*44 FrameData[6]
*45 FrameData[7]
*46 FrameData[8]
*47 FrameData[9]
*48 FrameData_O[0]
*49 FrameData_O[10]
*50 FrameData_O[11]
*51 FrameData_O[12]
*52 FrameData_O[13]
*53 FrameData_O[14]
*54 FrameData_O[15]
*55 FrameData_O[16]
*56 FrameData_O[17]
*57 FrameData_O[18]
*58 FrameData_O[19]
*59 FrameData_O[1]
*60 FrameData_O[20]
*61 FrameData_O[21]
*62 FrameData_O[22]
*63 FrameData_O[23]
*64 FrameData_O[24]
*65 FrameData_O[25]
*66 FrameData_O[26]
*67 FrameData_O[27]
*68 FrameData_O[28]
*69 FrameData_O[29]
*70 FrameData_O[2]
*71 FrameData_O[30]
*72 FrameData_O[31]
*73 FrameData_O[3]
*74 FrameData_O[4]
*75 FrameData_O[5]
*76 FrameData_O[6]
*77 FrameData_O[7]
*78 FrameData_O[8]
*79 FrameData_O[9]
*80 FrameStrobe[0]
*81 FrameStrobe[10]
*82 FrameStrobe[11]
*83 FrameStrobe[12]
*84 FrameStrobe[13]
*85 FrameStrobe[14]
*86 FrameStrobe[15]
*87 FrameStrobe[16]
*88 FrameStrobe[17]
*89 FrameStrobe[18]
*90 FrameStrobe[19]
*91 FrameStrobe[1]
*92 FrameStrobe[2]
*93 FrameStrobe[3]
*94 FrameStrobe[4]
*95 FrameStrobe[5]
*96 FrameStrobe[6]
*97 FrameStrobe[7]
*98 FrameStrobe[8]
*99 FrameStrobe[9]
*100 FrameStrobe_O[0]
*101 FrameStrobe_O[10]
*102 FrameStrobe_O[11]
*103 FrameStrobe_O[12]
*104 FrameStrobe_O[13]
*105 FrameStrobe_O[14]
*106 FrameStrobe_O[15]
*107 FrameStrobe_O[16]
*108 FrameStrobe_O[17]
*109 FrameStrobe_O[18]
*110 FrameStrobe_O[19]
*111 FrameStrobe_O[1]
*112 FrameStrobe_O[2]
*113 FrameStrobe_O[3]
*114 FrameStrobe_O[4]
*115 FrameStrobe_O[5]
*116 FrameStrobe_O[6]
*117 FrameStrobe_O[7]
*118 FrameStrobe_O[8]
*119 FrameStrobe_O[9]
*120 N1END[0]
*121 N1END[1]
*122 N1END[2]
*123 N1END[3]
*124 N2END[0]
*125 N2END[1]
*126 N2END[2]
*127 N2END[3]
*128 N2END[4]
*129 N2END[5]
*130 N2END[6]
*131 N2END[7]
*132 N2MID[0]
*133 N2MID[1]
*134 N2MID[2]
*135 N2MID[3]
*136 N2MID[4]
*137 N2MID[5]
*138 N2MID[6]
*139 N2MID[7]
*140 N4END[0]
*141 N4END[10]
*142 N4END[11]
*143 N4END[12]
*144 N4END[13]
*145 N4END[14]
*146 N4END[15]
*147 N4END[1]
*148 N4END[2]
*149 N4END[3]
*150 N4END[4]
*151 N4END[5]
*152 N4END[6]
*153 N4END[7]
*154 N4END[8]
*155 N4END[9]
*156 NN4END[0]
*157 NN4END[10]
*158 NN4END[11]
*159 NN4END[12]
*160 NN4END[13]
*161 NN4END[14]
*162 NN4END[15]
*163 NN4END[1]
*164 NN4END[2]
*165 NN4END[3]
*166 NN4END[4]
*167 NN4END[5]
*168 NN4END[6]
*169 NN4END[7]
*170 NN4END[8]
*171 NN4END[9]
*172 S1BEG[0]
*173 S1BEG[1]
*174 S1BEG[2]
*175 S1BEG[3]
*176 S2BEG[0]
*177 S2BEG[1]
*178 S2BEG[2]
*179 S2BEG[3]
*180 S2BEG[4]
*181 S2BEG[5]
*182 S2BEG[6]
*183 S2BEG[7]
*184 S2BEGb[0]
*185 S2BEGb[1]
*186 S2BEGb[2]
*187 S2BEGb[3]
*188 S2BEGb[4]
*189 S2BEGb[5]
*190 S2BEGb[6]
*191 S2BEGb[7]
*192 S4BEG[0]
*193 S4BEG[10]
*194 S4BEG[11]
*195 S4BEG[12]
*196 S4BEG[13]
*197 S4BEG[14]
*198 S4BEG[15]
*199 S4BEG[1]
*200 S4BEG[2]
*201 S4BEG[3]
*202 S4BEG[4]
*203 S4BEG[5]
*204 S4BEG[6]
*205 S4BEG[7]
*206 S4BEG[8]
*207 S4BEG[9]
*208 SS4BEG[0]
*209 SS4BEG[10]
*210 SS4BEG[11]
*211 SS4BEG[12]
*212 SS4BEG[13]
*213 SS4BEG[14]
*214 SS4BEG[15]
*215 SS4BEG[1]
*216 SS4BEG[2]
*217 SS4BEG[3]
*218 SS4BEG[4]
*219 SS4BEG[5]
*220 SS4BEG[6]
*221 SS4BEG[7]
*222 SS4BEG[8]
*223 SS4BEG[9]
*224 UserCLK
*225 UserCLKo
*228 Inst_A_IO_1_bidirectional_frame_config_pass\.Q
*229 Inst_B_IO_1_bidirectional_frame_config_pass\.Q
*230 Inst_N_IO_ConfigMem\.Inst_frame0_bit0\.Q
*231 Inst_N_IO_ConfigMem\.Inst_frame0_bit1\.Q
*232 Inst_N_IO_ConfigMem\.Inst_frame0_bit10\.Q
*233 Inst_N_IO_ConfigMem\.Inst_frame0_bit11\.Q
*234 Inst_N_IO_ConfigMem\.Inst_frame0_bit12\.Q
*235 Inst_N_IO_ConfigMem\.Inst_frame0_bit13\.Q
*236 Inst_N_IO_ConfigMem\.Inst_frame0_bit14\.Q
*237 Inst_N_IO_ConfigMem\.Inst_frame0_bit15\.Q
*238 Inst_N_IO_ConfigMem\.Inst_frame0_bit16\.Q
*239 Inst_N_IO_ConfigMem\.Inst_frame0_bit17\.Q
*240 Inst_N_IO_ConfigMem\.Inst_frame0_bit18\.Q
*241 Inst_N_IO_ConfigMem\.Inst_frame0_bit19\.Q
*242 Inst_N_IO_ConfigMem\.Inst_frame0_bit2\.Q
*243 Inst_N_IO_ConfigMem\.Inst_frame0_bit20\.Q
*244 Inst_N_IO_ConfigMem\.Inst_frame0_bit21\.Q
*245 Inst_N_IO_ConfigMem\.Inst_frame0_bit22\.Q
*246 Inst_N_IO_ConfigMem\.Inst_frame0_bit23\.Q
*247 Inst_N_IO_ConfigMem\.Inst_frame0_bit24\.Q
*248 Inst_N_IO_ConfigMem\.Inst_frame0_bit25\.Q
*249 Inst_N_IO_ConfigMem\.Inst_frame0_bit26\.Q
*250 Inst_N_IO_ConfigMem\.Inst_frame0_bit27\.Q
*251 Inst_N_IO_ConfigMem\.Inst_frame0_bit28\.Q
*252 Inst_N_IO_ConfigMem\.Inst_frame0_bit29\.Q
*253 Inst_N_IO_ConfigMem\.Inst_frame0_bit3\.Q
*254 Inst_N_IO_ConfigMem\.Inst_frame0_bit30\.Q
*255 Inst_N_IO_ConfigMem\.Inst_frame0_bit31\.Q
*256 Inst_N_IO_ConfigMem\.Inst_frame0_bit4\.Q
*257 Inst_N_IO_ConfigMem\.Inst_frame0_bit5\.Q
*258 Inst_N_IO_ConfigMem\.Inst_frame0_bit6\.Q
*259 Inst_N_IO_ConfigMem\.Inst_frame0_bit7\.Q
*260 Inst_N_IO_ConfigMem\.Inst_frame0_bit8\.Q
*261 Inst_N_IO_ConfigMem\.Inst_frame0_bit9\.Q
*262 Inst_N_IO_ConfigMem\.Inst_frame1_bit0\.Q
*263 Inst_N_IO_ConfigMem\.Inst_frame1_bit1\.Q
*264 Inst_N_IO_ConfigMem\.Inst_frame1_bit10\.Q
*265 Inst_N_IO_ConfigMem\.Inst_frame1_bit11\.Q
*266 Inst_N_IO_ConfigMem\.Inst_frame1_bit12\.Q
*267 Inst_N_IO_ConfigMem\.Inst_frame1_bit13\.Q
*268 Inst_N_IO_ConfigMem\.Inst_frame1_bit14\.Q
*269 Inst_N_IO_ConfigMem\.Inst_frame1_bit15\.Q
*270 Inst_N_IO_ConfigMem\.Inst_frame1_bit16\.Q
*271 Inst_N_IO_ConfigMem\.Inst_frame1_bit17\.Q
*272 Inst_N_IO_ConfigMem\.Inst_frame1_bit18\.Q
*273 Inst_N_IO_ConfigMem\.Inst_frame1_bit19\.Q
*274 Inst_N_IO_ConfigMem\.Inst_frame1_bit2\.Q
*275 Inst_N_IO_ConfigMem\.Inst_frame1_bit20\.Q
*276 Inst_N_IO_ConfigMem\.Inst_frame1_bit21\.Q
*277 Inst_N_IO_ConfigMem\.Inst_frame1_bit22\.Q
*278 Inst_N_IO_ConfigMem\.Inst_frame1_bit23\.Q
*279 Inst_N_IO_ConfigMem\.Inst_frame1_bit24\.Q
*280 Inst_N_IO_ConfigMem\.Inst_frame1_bit25\.Q
*281 Inst_N_IO_ConfigMem\.Inst_frame1_bit26\.Q
*282 Inst_N_IO_ConfigMem\.Inst_frame1_bit27\.Q
*283 Inst_N_IO_ConfigMem\.Inst_frame1_bit28\.Q
*284 Inst_N_IO_ConfigMem\.Inst_frame1_bit29\.Q
*285 Inst_N_IO_ConfigMem\.Inst_frame1_bit3\.Q
*286 Inst_N_IO_ConfigMem\.Inst_frame1_bit30\.Q
*287 Inst_N_IO_ConfigMem\.Inst_frame1_bit31\.Q
*288 Inst_N_IO_ConfigMem\.Inst_frame1_bit4\.Q
*289 Inst_N_IO_ConfigMem\.Inst_frame1_bit5\.Q
*290 Inst_N_IO_ConfigMem\.Inst_frame1_bit6\.Q
*291 Inst_N_IO_ConfigMem\.Inst_frame1_bit7\.Q
*292 Inst_N_IO_ConfigMem\.Inst_frame1_bit8\.Q
*293 Inst_N_IO_ConfigMem\.Inst_frame1_bit9\.Q
*294 Inst_N_IO_ConfigMem\.Inst_frame2_bit0\.Q
*295 Inst_N_IO_ConfigMem\.Inst_frame2_bit1\.Q
*296 Inst_N_IO_ConfigMem\.Inst_frame2_bit10\.Q
*297 Inst_N_IO_ConfigMem\.Inst_frame2_bit11\.Q
*298 Inst_N_IO_ConfigMem\.Inst_frame2_bit12\.Q
*299 Inst_N_IO_ConfigMem\.Inst_frame2_bit13\.Q
*300 Inst_N_IO_ConfigMem\.Inst_frame2_bit14\.Q
*301 Inst_N_IO_ConfigMem\.Inst_frame2_bit15\.Q
*302 Inst_N_IO_ConfigMem\.Inst_frame2_bit16\.Q
*303 Inst_N_IO_ConfigMem\.Inst_frame2_bit17\.Q
*304 Inst_N_IO_ConfigMem\.Inst_frame2_bit18\.Q
*305 Inst_N_IO_ConfigMem\.Inst_frame2_bit19\.Q
*306 Inst_N_IO_ConfigMem\.Inst_frame2_bit2\.Q
*307 Inst_N_IO_ConfigMem\.Inst_frame2_bit20\.Q
*308 Inst_N_IO_ConfigMem\.Inst_frame2_bit21\.Q
*309 Inst_N_IO_ConfigMem\.Inst_frame2_bit22\.Q
*310 Inst_N_IO_ConfigMem\.Inst_frame2_bit23\.Q
*311 Inst_N_IO_ConfigMem\.Inst_frame2_bit24\.Q
*312 Inst_N_IO_ConfigMem\.Inst_frame2_bit25\.Q
*313 Inst_N_IO_ConfigMem\.Inst_frame2_bit26\.Q
*314 Inst_N_IO_ConfigMem\.Inst_frame2_bit27\.Q
*315 Inst_N_IO_ConfigMem\.Inst_frame2_bit28\.Q
*316 Inst_N_IO_ConfigMem\.Inst_frame2_bit29\.Q
*317 Inst_N_IO_ConfigMem\.Inst_frame2_bit3\.Q
*318 Inst_N_IO_ConfigMem\.Inst_frame2_bit30\.Q
*319 Inst_N_IO_ConfigMem\.Inst_frame2_bit31\.Q
*320 Inst_N_IO_ConfigMem\.Inst_frame2_bit4\.Q
*321 Inst_N_IO_ConfigMem\.Inst_frame2_bit5\.Q
*322 Inst_N_IO_ConfigMem\.Inst_frame2_bit6\.Q
*323 Inst_N_IO_ConfigMem\.Inst_frame2_bit7\.Q
*324 Inst_N_IO_ConfigMem\.Inst_frame2_bit8\.Q
*325 Inst_N_IO_ConfigMem\.Inst_frame2_bit9\.Q
*326 Inst_N_IO_ConfigMem\.Inst_frame3_bit18\.Q
*327 Inst_N_IO_ConfigMem\.Inst_frame3_bit19\.Q
*328 Inst_N_IO_ConfigMem\.Inst_frame3_bit20\.Q
*329 Inst_N_IO_ConfigMem\.Inst_frame3_bit21\.Q
*330 Inst_N_IO_ConfigMem\.Inst_frame3_bit22\.Q
*331 Inst_N_IO_ConfigMem\.Inst_frame3_bit23\.Q
*332 Inst_N_IO_ConfigMem\.Inst_frame3_bit24\.Q
*333 Inst_N_IO_ConfigMem\.Inst_frame3_bit25\.Q
*334 Inst_N_IO_ConfigMem\.Inst_frame3_bit26\.Q
*335 Inst_N_IO_ConfigMem\.Inst_frame3_bit27\.Q
*336 Inst_N_IO_ConfigMem\.Inst_frame3_bit28\.Q
*337 Inst_N_IO_ConfigMem\.Inst_frame3_bit29\.Q
*338 Inst_N_IO_ConfigMem\.Inst_frame3_bit30\.Q
*339 Inst_N_IO_ConfigMem\.Inst_frame3_bit31\.Q
*340 Inst_N_IO_switch_matrix\.DEBUG_select_S1BEG0[0]
*341 Inst_N_IO_switch_matrix\.DEBUG_select_S1BEG1[0]
*342 Inst_N_IO_switch_matrix\.DEBUG_select_S1BEG2[0]
*343 Inst_N_IO_switch_matrix\.DEBUG_select_S1BEG3[0]
*344 Inst_N_IO_switch_matrix\.S1BEG0
*345 Inst_N_IO_switch_matrix\.S1BEG1
*346 Inst_N_IO_switch_matrix\.S1BEG2
*347 Inst_N_IO_switch_matrix\.S1BEG3
*348 Inst_N_IO_switch_matrix\.S2BEG0
*349 Inst_N_IO_switch_matrix\.S2BEG1
*350 Inst_N_IO_switch_matrix\.S2BEG2
*351 Inst_N_IO_switch_matrix\.S2BEG3
*352 Inst_N_IO_switch_matrix\.S2BEG4
*353 Inst_N_IO_switch_matrix\.S2BEG5
*354 Inst_N_IO_switch_matrix\.S2BEG6
*355 Inst_N_IO_switch_matrix\.S2BEG7
*356 Inst_N_IO_switch_matrix\.S2BEGb0
*357 Inst_N_IO_switch_matrix\.S2BEGb1
*358 Inst_N_IO_switch_matrix\.S2BEGb2
*359 Inst_N_IO_switch_matrix\.S2BEGb3
*360 Inst_N_IO_switch_matrix\.S2BEGb4
*361 Inst_N_IO_switch_matrix\.S2BEGb5
*362 Inst_N_IO_switch_matrix\.S2BEGb6
*363 Inst_N_IO_switch_matrix\.S2BEGb7
*364 Inst_N_IO_switch_matrix\.S4BEG0
*365 Inst_N_IO_switch_matrix\.S4BEG1
*366 Inst_N_IO_switch_matrix\.S4BEG10
*367 Inst_N_IO_switch_matrix\.S4BEG11
*368 Inst_N_IO_switch_matrix\.S4BEG12
*369 Inst_N_IO_switch_matrix\.S4BEG13
*370 Inst_N_IO_switch_matrix\.S4BEG14
*371 Inst_N_IO_switch_matrix\.S4BEG15
*372 Inst_N_IO_switch_matrix\.S4BEG2
*373 Inst_N_IO_switch_matrix\.S4BEG3
*374 Inst_N_IO_switch_matrix\.S4BEG4
*375 Inst_N_IO_switch_matrix\.S4BEG5
*376 Inst_N_IO_switch_matrix\.S4BEG6
*377 Inst_N_IO_switch_matrix\.S4BEG7
*378 Inst_N_IO_switch_matrix\.S4BEG8
*379 Inst_N_IO_switch_matrix\.S4BEG9
*380 Inst_N_IO_switch_matrix\.SS4BEG0
*381 Inst_N_IO_switch_matrix\.SS4BEG1
*382 Inst_N_IO_switch_matrix\.SS4BEG10
*383 Inst_N_IO_switch_matrix\.SS4BEG11
*384 Inst_N_IO_switch_matrix\.SS4BEG12
*385 Inst_N_IO_switch_matrix\.SS4BEG13
*386 Inst_N_IO_switch_matrix\.SS4BEG14
*387 Inst_N_IO_switch_matrix\.SS4BEG15
*388 Inst_N_IO_switch_matrix\.SS4BEG2
*389 Inst_N_IO_switch_matrix\.SS4BEG3
*390 Inst_N_IO_switch_matrix\.SS4BEG4
*391 Inst_N_IO_switch_matrix\.SS4BEG5
*392 Inst_N_IO_switch_matrix\.SS4BEG6
*393 Inst_N_IO_switch_matrix\.SS4BEG7
*394 Inst_N_IO_switch_matrix\.SS4BEG8
*395 Inst_N_IO_switch_matrix\.SS4BEG9
*396 UserCLK_regs
*397 _000_
*398 _001_
*399 _002_
*400 _003_
*401 _004_
*402 _005_
*403 _006_
*404 _007_
*405 _008_
*406 _009_
*407 _010_
*408 _011_
*409 _012_
*410 _013_
*411 _014_
*412 _015_
*413 _016_
*414 _017_
*415 _018_
*416 _019_
*417 _020_
*418 _021_
*419 _022_
*420 _023_
*421 _024_
*422 _025_
*423 _026_
*424 _027_
*425 _028_
*426 _029_
*427 _030_
*428 _031_
*429 _032_
*430 _033_
*431 _034_
*432 _035_
*433 _036_
*434 _037_
*435 _038_
*436 _039_
*437 _040_
*438 _041_
*439 _042_
*440 _043_
*441 _044_
*442 _045_
*443 _046_
*444 clknet_0_UserCLK
*445 clknet_0_UserCLK_regs
*446 clknet_1_0__leaf_UserCLK
*447 clknet_1_0__leaf_UserCLK_regs
*448 clknet_1_1__leaf_UserCLK_regs
*449 FILLER_0_0
*450 FILLER_0_133
*451 FILLER_0_140
*452 FILLER_0_144
*453 FILLER_0_163
*454 FILLER_0_167
*455 FILLER_0_18
*456 FILLER_0_202
*457 FILLER_0_220
*458 FILLER_0_224
*459 FILLER_0_230
*460 FILLER_0_249
*461 FILLER_0_253
*462 FILLER_0_271
*463 FILLER_0_278
*464 FILLER_0_282
*465 FILLER_0_288
*466 FILLER_0_290
*467 FILLER_0_36
*468 FILLER_0_40
*469 FILLER_0_421
*470 FILLER_0_423
*471 FILLER_0_62
*472 FILLER_0_69
*473 FILLER_0_76
*474 FILLER_0_80
*475 FILLER_10_0
*476 FILLER_10_105
*477 FILLER_10_112
*478 FILLER_10_116
*479 FILLER_10_151
*480 FILLER_10_191
*481 FILLER_10_193
*482 FILLER_10_21
*483 FILLER_10_23
*484 FILLER_10_236
*485 FILLER_10_243
*486 FILLER_10_250
*487 FILLER_10_289
*488 FILLER_10_291
*489 FILLER_10_296
*490 FILLER_10_334
*491 FILLER_10_336
*492 FILLER_10_34
*493 FILLER_10_36
*494 FILLER_10_397
*495 FILLER_10_401
*496 FILLER_10_410
*497 FILLER_10_412
*498 FILLER_10_421
*499 FILLER_10_423
*500 FILLER_11_0
*501 FILLER_11_128
*502 FILLER_11_135
*503 FILLER_11_142
*504 FILLER_11_163
*505 FILLER_11_170
*506 FILLER_11_172
*507 FILLER_11_194
*508 FILLER_11_2
*509 FILLER_11_20
*510 FILLER_11_201
*511 FILLER_11_212
*512 FILLER_11_219
*513 FILLER_11_238
*514 FILLER_11_257
*515 FILLER_11_264
*516 FILLER_11_271
*517 FILLER_11_275
*518 FILLER_11_293
*519 FILLER_11_37
*520 FILLER_11_384
*521 FILLER_11_391
*522 FILLER_11_398
*523 FILLER_11_405
*524 FILLER_11_421
*525 FILLER_11_423
*526 FILLER_11_44
*527 FILLER_11_51
*528 FILLER_11_58
*529 FILLER_11_65
*530 FILLER_11_67
*531 FILLER_11_85
*532 FILLER_11_92
*533 FILLER_1_0
*534 FILLER_1_165
*535 FILLER_1_167
*536 FILLER_1_189
*537 FILLER_1_193
*538 FILLER_1_219
*539 FILLER_1_242
*540 FILLER_1_269
*541 FILLER_1_350
*542 FILLER_1_375
*543 FILLER_1_377
*544 FILLER_1_382
*545 FILLER_1_384
*546 FILLER_1_423
*547 FILLER_1_65
*548 FILLER_1_67
*549 FILLER_1_7
*550 FILLER_1_89
*551 FILLER_1_9
*552 FILLER_1_96
*553 FILLER_2_0
*554 FILLER_2_121
*555 FILLER_2_128
*556 FILLER_2_130
*557 FILLER_2_152
*558 FILLER_2_170
*559 FILLER_2_2
*560 FILLER_2_20
*561 FILLER_2_209
*562 FILLER_2_215
*563 FILLER_2_220
*564 FILLER_2_224
*565 FILLER_2_248
*566 FILLER_2_250
*567 FILLER_2_323
*568 FILLER_2_325
*569 FILLER_2_347
*570 FILLER_2_354
*571 FILLER_2_36
*572 FILLER_2_387
*573 FILLER_2_410
*574 FILLER_2_412
*575 FILLER_2_421
*576 FILLER_2_423
*577 FILLER_2_43
*578 FILLER_2_47
*579 FILLER_3_0
*580 FILLER_3_123
*581 FILLER_3_130
*582 FILLER_3_134
*583 FILLER_3_152
*584 FILLER_3_177
*585 FILLER_3_184
*586 FILLER_3_191
*587 FILLER_3_209
*588 FILLER_3_227
*589 FILLER_3_267
*590 FILLER_3_274
*591 FILLER_3_278
*592 FILLER_3_297
*593 FILLER_3_299
*594 FILLER_3_33
*595 FILLER_3_338
*596 FILLER_3_345
*597 FILLER_3_421
*598 FILLER_3_423
*599 FILLER_3_75
*600 FILLER_3_77
*601 FILLER_3_95
*602 FILLER_4_0
*603 FILLER_4_130
*604 FILLER_4_153
*605 FILLER_4_160
*606 FILLER_4_167
*607 FILLER_4_185
*608 FILLER_4_187
*609 FILLER_4_2
*610 FILLER_4_20
*611 FILLER_4_205
*612 FILLER_4_22
*613 FILLER_4_231
*614 FILLER_4_257
*615 FILLER_4_264
*616 FILLER_4_268
*617 FILLER_4_298
*618 FILLER_4_315
*619 FILLER_4_322
*620 FILLER_4_326
*621 FILLER_4_373
*622 FILLER_4_421
*623 FILLER_4_423
*624 FILLER_4_43
*625 FILLER_4_66
*626 FILLER_4_70
*627 FILLER_4_88
*628 FILLER_4_95
*629 FILLER_5_0
*630 FILLER_5_101
*631 FILLER_5_120
*632 FILLER_5_127
*633 FILLER_5_152
*634 FILLER_5_159
*635 FILLER_5_21
*636 FILLER_5_211
*637 FILLER_5_255
*638 FILLER_5_279
*639 FILLER_5_286
*640 FILLER_5_307
*641 FILLER_5_314
*642 FILLER_5_318
*643 FILLER_5_340
*644 FILLER_5_342
*645 FILLER_5_360
*646 FILLER_5_378
*647 FILLER_5_38
*648 FILLER_5_406
*649 FILLER_5_408
*650 FILLER_5_421
*651 FILLER_5_423
*652 FILLER_5_65
*653 FILLER_5_72
*654 FILLER_6_0
*655 FILLER_6_112
*656 FILLER_6_119
*657 FILLER_6_123
*658 FILLER_6_192
*659 FILLER_6_196
*660 FILLER_6_202
*661 FILLER_6_209
*662 FILLER_6_21
*663 FILLER_6_216
*664 FILLER_6_234
*665 FILLER_6_256
*666 FILLER_6_263
*667 FILLER_6_271
*668 FILLER_6_273
*669 FILLER_6_28
*670 FILLER_6_299
*671 FILLER_6_339
*672 FILLER_6_346
*673 FILLER_6_353
*674 FILLER_6_375
*675 FILLER_6_382
*676 FILLER_6_389
*677 FILLER_6_396
*678 FILLER_6_403
*679 FILLER_6_407
*680 FILLER_6_417
*681 FILLER_6_66
*682 FILLER_6_73
*683 FILLER_7_0
*684 FILLER_7_107
*685 FILLER_7_114
*686 FILLER_7_132
*687 FILLER_7_139
*688 FILLER_7_158
*689 FILLER_7_165
*690 FILLER_7_172
*691 FILLER_7_22
*692 FILLER_7_236
*693 FILLER_7_240
*694 FILLER_7_258
*695 FILLER_7_280
*696 FILLER_7_299
*697 FILLER_7_303
*698 FILLER_7_343
*699 FILLER_7_350
*700 FILLER_7_357
*701 FILLER_7_364
*702 FILLER_7_4
*703 FILLER_7_404
*704 FILLER_7_408
*705 FILLER_7_417
*706 FILLER_7_65
*707 FILLER_7_83
*708 FILLER_8_0
*709 FILLER_8_100
*710 FILLER_8_125
*711 FILLER_8_129
*712 FILLER_8_14
*713 FILLER_8_151
*714 FILLER_8_155
*715 FILLER_8_174
*716 FILLER_8_181
*717 FILLER_8_185
*718 FILLER_8_212
*719 FILLER_8_219
*720 FILLER_8_226
*721 FILLER_8_228
*722 FILLER_8_233
*723 FILLER_8_237
*724 FILLER_8_256
*725 FILLER_8_278
*726 FILLER_8_285
*727 FILLER_8_287
*728 FILLER_8_29
*729 FILLER_8_309
*730 FILLER_8_31
*731 FILLER_8_316
*732 FILLER_8_334
*733 FILLER_8_373
*734 FILLER_8_380
*735 FILLER_8_403
*736 FILLER_8_407
*737 FILLER_8_417
*738 FILLER_8_7
*739 FILLER_8_93
*740 FILLER_9_0
*741 FILLER_9_148
*742 FILLER_9_172
*743 FILLER_9_190
*744 FILLER_9_192
*745 FILLER_9_214
*746 FILLER_9_218
*747 FILLER_9_224
*748 FILLER_9_242
*749 FILLER_9_249
*750 FILLER_9_275
*751 FILLER_9_282
*752 FILLER_9_284
*753 FILLER_9_331
*754 FILLER_9_336
*755 FILLER_9_340
*756 FILLER_9_386
*757 FILLER_9_393
*758 FILLER_9_400
*759 FILLER_9_407
*760 FILLER_9_421
*761 FILLER_9_423
*762 FILLER_9_46
*763 FILLER_9_48
*764 FILLER_9_66
*765 FILLER_9_68
*766 FILLER_9_79
*767 _047_
*768 _048_
*769 _049_
*770 _050_
*771 _051_
*772 _052_
*773 _053_
*774 _054_
*775 _055_
*776 _056_
*777 _057_
*778 _058_
*779 _059_
*780 _060_
*781 _061_
*782 _062_
*783 _063_
*784 _064_
*785 _065_
*786 _066_
*787 _067_
*788 _068_
*789 _069_
*790 _070_
*791 _071_
*792 _072_
*793 _073_
*794 _074_
*795 _075_
*796 _076_
*797 _077_
*798 _078_
*799 _079_
*800 _080_
*801 _081_
*802 _082_
*803 _083_
*804 _084_
*805 _085_
*806 _086_
*807 _087_
*808 _088_
*809 _089_
*810 _090_
*811 _091_
*812 _092_
*813 _093_
*814 _094_
*815 _095_
*816 _096_
*817 _097_
*818 _098_
*819 _099_
*820 _100_
*821 _101_
*822 _102_
*823 _103_
*824 _104_
*825 _105_
*826 _106_
*827 _107_
*828 _108_
*829 _109_
*830 _110_
*831 _111_
*832 _112_
*833 _113_
*834 _114_
*835 _115_
*836 _116_
*837 _117_
*838 _118_
*839 _119_
*840 _120_
*841 _121_
*842 _122_
*843 _123_
*844 _124_
*845 _125_
*846 _126_
*847 _127_
*848 _128_
*849 _129_
*850 _130_
*851 _131_
*852 _132_
*853 _133_
*854 _134_
*855 _135_
*856 _136_
*857 _137_
*858 _138_
*859 _139_
*860 _140_
*861 _141_
*862 _142_
*863 _143_
*864 _144_
*865 _145_
*866 _146_
*867 _147_
*868 _148_
*869 _149_
*870 _150_
*871 _151_
*872 _152_
*873 _153_
*874 _154_
*875 _155_
*876 _156_
*877 _157_
*878 _158_
*879 _159_
*880 _160_
*881 _161_
*882 _162_
*883 _163_
*884 _164_
*885 _165_
*886 _166_
*887 _167_
*888 _168_
*889 _169_
*890 _170_
*891 _171_
*892 _172_
*893 _173_
*894 _174_
*895 _175_
*896 _176_
*897 _177_
*898 _178_
*899 _179_
*900 _180_
*901 _181_
*902 _182_
*903 _183_
*904 _184_
*905 _185_
*906 _186_
*907 _187_
*908 _188_
*909 _189_
*910 _190_
*911 _191_
*912 _192_
*913 _193_
*914 _194_
*915 _195_
*916 _196_
*917 _197_
*918 _198_
*919 _199_
*920 _200_
*921 _201_
*922 _202_
*923 _203_
*924 _204_
*925 _205_
*926 _206_
*927 _207_
*928 _208_
*929 _209_
*930 _210_
*931 _211_
*932 _212_
*933 _213_
*934 _214_
*935 _215_
*936 _216_
*937 _217_
*938 _218_
*939 _219_
*940 _220_
*941 _221_
*942 _222_
*943 _223_
*944 _224_
*945 _225_
*946 _226_
*947 _227_
*948 _228_
*949 _229_
*950 _230_
*951 _231_
*952 _232_
*953 _233_
*954 _234_
*955 _235_
*956 _236_
*957 _237_
*958 _238_
*959 _239_
*960 _240_
*961 _241_
*962 _242_
*963 _243_
*964 _244_
*965 _245_
*966 _246_
*967 _247_
*968 _248_
*969 _249_
*970 _250_
*971 _251_
*972 _252_
*973 _253_
*974 _254_
*975 _255_
*976 _256_
*977 _257_
*978 _258_
*979 _259_
*980 _260_
*981 _261_
*982 _262_
*983 _263_
*984 _264_
*985 _265_
*986 _266_
*987 _267_
*988 _268_
*989 _269_
*990 _270_
*991 _271_
*992 _272_
*993 _273_
*994 _274_
*995 _275_
*996 _276_
*997 _277_
*998 _278_
*999 _279_
*1000 _280_
*1001 _281_
*1002 _282_
*1003 _283_
*1004 _284_
*1005 _285_
*1006 _286_
*1007 _287_
*1008 _288_
*1009 _289_
*1010 _290_
*1011 _291_
*1012 _292_
*1013 _293_
*1014 _294_
*1015 _295_
*1016 _296_
*1017 _297_
*1018 _298_
*1019 _299_
*1020 _300_
*1021 _301_
*1022 _302_
*1023 _303_
*1024 _304_
*1025 _305_
*1026 _306_
*1027 _307_
*1028 _308_
*1029 _309_
*1030 _310_
*1031 _311_
*1032 _312_
*1033 _313_
*1034 _314_
*1035 _315_
*1036 _316_
*1037 _317_
*1038 _318_
*1039 _319_
*1040 _320_
*1041 _321_
*1042 _322_
*1043 _323_
*1044 _324_
*1045 _325_
*1046 _326_
*1047 _327_
*1048 _328_
*1049 _329_
*1050 _330_
*1051 _331_
*1052 _332_
*1053 _333_
*1054 _334_
*1055 _335_
*1056 _336_
*1057 _337_
*1058 _338_
*1059 _339_
*1060 _340_
*1061 _341_
*1062 _342_
*1063 _343_
*1064 _344_
*1065 _345_
*1066 _346_
*1067 _347_
*1068 _348_
*1069 _349_
*1070 _350_
*1071 _351_
*1072 _352_
*1073 _353_
*1074 _354_
*1075 _355_
*1076 _356_
*1077 _357_
*1078 _358_
*1079 _359_
*1080 _360_
*1081 _361_
*1082 _362_
*1083 _363_
*1084 _364_
*1085 _365_
*1086 _366_
*1087 _367_
*1088 _368_
*1089 _369_
*1090 _370_
*1091 _371_
*1092 _372_
*1093 _373_
*1094 _374_
*1095 _375_
*1096 _376_
*1097 _377_
*1098 _378_
*1099 clkbuf_0_UserCLK
*1100 clkbuf_0_UserCLK_regs
*1101 clkbuf_1_0__f_UserCLK
*1102 clkbuf_1_0__f_UserCLK_regs
*1103 clkbuf_1_1__f_UserCLK_regs
*1104 clkbuf_regs_0_UserCLK

*PORTS
A_I_top O
A_O_top I
A_T_top O
A_config_C_bit0 O
A_config_C_bit1 O
A_config_C_bit2 O
A_config_C_bit3 O
B_I_top O
B_O_top I
B_T_top O
B_config_C_bit0 O
B_config_C_bit1 O
B_config_C_bit2 O
B_config_C_bit3 O
Ci I
FrameData[0] I
FrameData[10] I
FrameData[11] I
FrameData[12] I
FrameData[13] I
FrameData[14] I
FrameData[15] I
FrameData[16] I
FrameData[17] I
FrameData[18] I
FrameData[19] I
FrameData[1] I
FrameData[20] I
FrameData[21] I
FrameData[22] I
FrameData[23] I
FrameData[24] I
FrameData[25] I
FrameData[26] I
FrameData[27] I
FrameData[28] I
FrameData[29] I
FrameData[2] I
FrameData[30] I
FrameData[31] I
FrameData[3] I
FrameData[4] I
FrameData[5] I
FrameData[6] I
FrameData[7] I
FrameData[8] I
FrameData[9] I
FrameData_O[0] O
FrameData_O[10] O
FrameData_O[11] O
FrameData_O[12] O
FrameData_O[13] O
FrameData_O[14] O
FrameData_O[15] O
FrameData_O[16] O
FrameData_O[17] O
FrameData_O[18] O
FrameData_O[19] O
FrameData_O[1] O
FrameData_O[20] O
FrameData_O[21] O
FrameData_O[22] O
FrameData_O[23] O
FrameData_O[24] O
FrameData_O[25] O
FrameData_O[26] O
FrameData_O[27] O
FrameData_O[28] O
FrameData_O[29] O
FrameData_O[2] O
FrameData_O[30] O
FrameData_O[31] O
FrameData_O[3] O
FrameData_O[4] O
FrameData_O[5] O
FrameData_O[6] O
FrameData_O[7] O
FrameData_O[8] O
FrameData_O[9] O
FrameStrobe[0] I
FrameStrobe[10] I
FrameStrobe[11] I
FrameStrobe[12] I
FrameStrobe[13] I
FrameStrobe[14] I
FrameStrobe[15] I
FrameStrobe[16] I
FrameStrobe[17] I
FrameStrobe[18] I
FrameStrobe[19] I
FrameStrobe[1] I
FrameStrobe[2] I
FrameStrobe[3] I
FrameStrobe[4] I
FrameStrobe[5] I
FrameStrobe[6] I
FrameStrobe[7] I
FrameStrobe[8] I
FrameStrobe[9] I
FrameStrobe_O[0] O
FrameStrobe_O[10] O
FrameStrobe_O[11] O
FrameStrobe_O[12] O
FrameStrobe_O[13] O
FrameStrobe_O[14] O
FrameStrobe_O[15] O
FrameStrobe_O[16] O
FrameStrobe_O[17] O
FrameStrobe_O[18] O
FrameStrobe_O[19] O
FrameStrobe_O[1] O
FrameStrobe_O[2] O
FrameStrobe_O[3] O
FrameStrobe_O[4] O
FrameStrobe_O[5] O
FrameStrobe_O[6] O
FrameStrobe_O[7] O
FrameStrobe_O[8] O
FrameStrobe_O[9] O
N1END[0] I
N1END[1] I
N1END[2] I
N1END[3] I
N2END[0] I
N2END[1] I
N2END[2] I
N2END[3] I
N2END[4] I
N2END[5] I
N2END[6] I
N2END[7] I
N2MID[0] I
N2MID[1] I
N2MID[2] I
N2MID[3] I
N2MID[4] I
N2MID[5] I
N2MID[6] I
N2MID[7] I
N4END[0] I
N4END[10] I
N4END[11] I
N4END[12] I
N4END[13] I
N4END[14] I
N4END[15] I
N4END[1] I
N4END[2] I
N4END[3] I
N4END[4] I
N4END[5] I
N4END[6] I
N4END[7] I
N4END[8] I
N4END[9] I
NN4END[0] I
NN4END[10] I
NN4END[11] I
NN4END[12] I
NN4END[13] I
NN4END[14] I
NN4END[15] I
NN4END[1] I
NN4END[2] I
NN4END[3] I
NN4END[4] I
NN4END[5] I
NN4END[6] I
NN4END[7] I
NN4END[8] I
NN4END[9] I
S1BEG[0] O
S1BEG[1] O
S1BEG[2] O
S1BEG[3] O
S2BEG[0] O
S2BEG[1] O
S2BEG[2] O
S2BEG[3] O
S2BEG[4] O
S2BEG[5] O
S2BEG[6] O
S2BEG[7] O
S2BEGb[0] O
S2BEGb[1] O
S2BEGb[2] O
S2BEGb[3] O
S2BEGb[4] O
S2BEGb[5] O
S2BEGb[6] O
S2BEGb[7] O
S4BEG[0] O
S4BEG[10] O
S4BEG[11] O
S4BEG[12] O
S4BEG[13] O
S4BEG[14] O
S4BEG[15] O
S4BEG[1] O
S4BEG[2] O
S4BEG[3] O
S4BEG[4] O
S4BEG[5] O
S4BEG[6] O
S4BEG[7] O
S4BEG[8] O
S4BEG[9] O
SS4BEG[0] O
SS4BEG[10] O
SS4BEG[11] O
SS4BEG[12] O
SS4BEG[13] O
SS4BEG[14] O
SS4BEG[15] O
SS4BEG[1] O
SS4BEG[2] O
SS4BEG[3] O
SS4BEG[4] O
SS4BEG[5] O
SS4BEG[6] O
SS4BEG[7] O
SS4BEG[8] O
SS4BEG[9] O
UserCLK I
UserCLKo O

*D_NET *1 0.00446386
*CONN
*P A_I_top O
*I *836:Y O *D sg13g2_o21ai_1
*CAP
1 A_I_top 0.00170722
2 *836:Y 0.00170722
3 A_I_top *791:A1 0.00032378
4 A_I_top *792:C 0
5 A_I_top *792:A_N 0.000112198
6 A_I_top *795:D 0.000177299
7 A_I_top *2:11 0
8 A_I_top *80:114 0
9 A_I_top *80:118 0
10 A_I_top *126:52 0
11 A_I_top *246:39 0.000161265
12 A_I_top *247:8 0
13 A_I_top *247:14 0.000144027
14 A_I_top *247:28 5.06237e-05
15 A_I_top *248:10 8.02267e-05
*RES
1 *836:Y A_I_top 37.9169 
*END

*D_NET *2 0.0388458
*CONN
*P A_O_top I
*I *787:A1 I *D sg13g2_mux2_1
*I *862:A3 I *D sg13g2_mux4_1
*I *866:A3 I *D sg13g2_mux4_1
*I *990:D I *D sg13g2_dfrbpq_1
*I *842:A3 I *D sg13g2_mux4_1
*I *852:A3 I *D sg13g2_mux4_1
*I *864:A3 I *D sg13g2_mux4_1
*I *767:A3 I *D sg13g2_mux4_1
*CAP
1 A_O_top 0.00158118
2 *787:A1 0.000133547
3 *862:A3 0.000219951
4 *866:A3 3.77166e-05
5 *990:D 0.000295428
6 *842:A3 0.000217903
7 *852:A3 8.87366e-05
8 *864:A3 0
9 *767:A3 2.60565e-05
10 *2:118 0.000257668
11 *2:83 0.000880632
12 *2:73 0.00242915
13 *2:61 0.00265936
14 *2:50 0.00137588
15 *2:33 0.000490201
16 *2:25 0.00400927
17 *2:13 0.00601798
18 *2:11 0.00364424
19 *767:A3 S4BEG[6] 4.77425e-05
20 *767:A3 *169:61 4.77425e-05
21 *787:A1 *787:A0 7.98582e-05
22 *787:A1 *923:D 0
23 *787:A1 *93:122 0
24 *842:A3 *1037:A 0
25 *842:A3 *1038:A 4.77425e-05
26 *842:A3 *1082:A 0.000209056
27 *852:A3 *1037:A 0
28 *852:A3 *86:19 0
29 *852:A3 *228:16 0.000126354
30 *862:A3 *862:A2 0
31 *862:A3 *92:446 0
32 *990:D *1038:A 0
33 *990:D *32:56 0
34 *990:D *88:27 4.77425e-05
35 *990:D *104:8 0
36 *2:11 *982:D 0
37 *2:11 *982:GATE 0
38 *2:11 *984:D 0
39 *2:11 *18:9 0
40 *2:11 *29:9 0.000984905
41 *2:11 *47:9 0
42 *2:11 *80:114 0
43 *2:11 *80:118 0
44 *2:11 *80:241 0
45 *2:11 *247:8 0
46 *2:13 *19:15 0
47 *2:13 *21:11 0
48 *2:13 *25:26 0
49 *2:13 *124:98 0
50 *2:13 *127:37 0
51 *2:13 *129:15 0
52 *2:13 *241:10 0
53 *2:13 *241:27 0
54 *2:13 *403:8 0.000127639
55 *2:13 *418:14 0
56 *2:13 *424:24 0
57 *2:25 *770:A0 0
58 *2:25 *18:78 0.000178938
59 *2:25 *19:15 0.000437993
60 *2:25 *21:34 0
61 *2:25 *92:176 0
62 *2:25 *92:182 0
63 *2:25 *92:226 0
64 *2:25 *93:13 0.000209001
65 *2:25 *93:23 0.00134774
66 *2:25 *93:33 0.000125875
67 *2:25 *93:39 0.000446434
68 *2:25 *127:27 0.000178206
69 *2:25 *127:84 0.0010111
70 *2:25 *129:13 0.000665334
71 *2:25 *139:93 0
72 *2:25 *162:45 0.000127825
73 *2:25 *163:9 0
74 *2:25 *163:24 0
75 *2:25 *186:12 0.000710923
76 *2:25 *340:8 0.000448101
77 *2:25 *377:18 0
78 *2:33 *162:49 0.000175809
79 *2:33 *162:66 0.000250068
80 *2:33 *305:10 0.00012816
81 *2:33 *377:18 7.86681e-05
82 *2:50 *767:S1 4.23522e-05
83 *2:50 *17:54 0.000208035
84 *2:50 *162:66 0.000234224
85 *2:50 *167:40 0
86 *2:50 *305:10 0.000212127
87 *2:61 S4BEG[6] 0
88 *2:61 *866:A0 0
89 *2:61 *920:D 0
90 *2:61 *35:58 0
91 *2:61 *142:25 0
92 *2:61 *158:39 0.000550763
93 *2:61 *204:12 0
94 *2:73 *32:41 0.000228097
95 *2:73 *35:58 0
96 *2:73 *46:55 0.000393145
97 *2:73 *99:17 0.000712844
98 *2:73 *104:8 0
99 *2:73 *166:50 0.0012918
100 *2:73 *204:12 0.000447269
101 *2:73 *229:93 0.00023464
102 *2:73 *324:12 0.000150973
103 *2:83 *852:S1 0.000208035
104 *2:83 *950:D 0.000273509
105 *2:83 *1038:A 0.000852943
106 *2:83 *83:29 7.48209e-05
107 *2:83 *88:27 0
108 *2:83 *228:16 0.000126358
109 A_I_top *2:11 0
*RES
1 A_O_top *2:11 36.0692 
2 *2:11 *2:13 17.407 
3 *2:13 *2:25 41.0352 
4 *2:25 *2:33 42.2763 
5 *2:33 *767:A3 40.3193 
6 *2:33 *2:50 23.4917 
7 *2:50 *864:A3 20 
8 *2:50 *2:61 29.9051 
9 *2:61 *2:73 19.0653 
10 *2:73 *2:83 46.6435 
11 *2:83 *852:A3 40.9167 
12 *2:83 *842:A3 42.3999 
13 *2:73 *990:D 42.4617 
14 *2:61 *2:118 20 
15 *2:118 *866:A3 20.3193 
16 *2:118 *862:A3 21.9673 
17 *2:13 *787:A1 41.4214 
*END

*D_NET *3 0.000761448
*CONN
*P A_T_top O
*I *796:Y O *D sg13g2_o21ai_1
*CAP
1 A_T_top 0.000380724
2 *796:Y 0.000380724
*RES
1 *796:Y A_T_top 24.635 
*END

*D_NET *4 0.000854109
*CONN
*P A_config_C_bit0 O
*I *868:Q O *D sg13g2_dlhq_1
*CAP
1 A_config_C_bit0 0.000427054
2 *868:Q 0.000427054
3 A_config_C_bit0 A_config_C_bit1 0
*RES
1 *868:Q A_config_C_bit0 25.0676 
*END

*D_NET *5 0.00127012
*CONN
*P A_config_C_bit1 O
*I *869:Q O *D sg13g2_dlhq_1
*CAP
1 A_config_C_bit1 0.000635062
2 *869:Q 0.000635062
3 A_config_C_bit1 A_config_C_bit2 0
4 A_config_C_bit1 *868:GATE 0
5 A_config_C_bit0 A_config_C_bit1 0
*RES
1 *869:Q A_config_C_bit1 26.9834 
*END

*D_NET *6 0.00165073
*CONN
*P A_config_C_bit2 O
*I *870:Q O *D sg13g2_dlhq_1
*CAP
1 A_config_C_bit2 0.000825366
2 *870:Q 0.000825366
3 A_config_C_bit2 *952:GATE 0
4 A_config_C_bit2 *35:32 0
5 A_config_C_bit1 A_config_C_bit2 0
*RES
1 *870:Q A_config_C_bit2 29.4554 
*END

*D_NET *7 0.000702602
*CONN
*P A_config_C_bit3 O
*I *871:Q O *D sg13g2_dlhq_1
*CAP
1 A_config_C_bit3 0.000241458
2 *871:Q 0.000109843
3 *7:8 0.000351301
4 A_config_C_bit3 *9:15 0
5 *7:8 *93:88 0
*RES
1 *871:Q *7:8 41.339 
2 *7:8 A_config_C_bit3 22.7604 
*END