*SPEF "ieee 1481-1999"
*DESIGN "W_TT_IF2"
*DATE "12:21:15 Friday August 15, 2025"
*VENDOR "The OpenROAD Project"
*PROGRAM "OpenROAD"
*VERSION "341650e72dad0dc8571822ff8c5d9c5e365327f7"
*DESIGN_FLOW "NAME_SCOPE LOCAL" "PIN_CAP NONE"
*DIVIDER /
*DELIMITER :
*BUS_DELIMITER []
*T_UNIT 1 NS
*C_UNIT 1 PF
*R_UNIT 1 OHM
*L_UNIT 1 HENRY

*NAME_MAP
*1 CLK_TT_PROJECT
*2 ENA_TT_PROJECT
*3 RST_N_TT_PROJECT
*4 Tile_X0Y0_E1BEG[0]
*5 Tile_X0Y0_E1BEG[1]
*6 Tile_X0Y0_E1BEG[2]
*7 Tile_X0Y0_E1BEG[3]
*8 Tile_X0Y0_E2BEG[0]
*9 Tile_X0Y0_E2BEG[1]
*10 Tile_X0Y0_E2BEG[2]
*11 Tile_X0Y0_E2BEG[3]
*12 Tile_X0Y0_E2BEG[4]
*13 Tile_X0Y0_E2BEG[5]
*14 Tile_X0Y0_E2BEG[6]
*15 Tile_X0Y0_E2BEG[7]
*16 Tile_X0Y0_E2BEGb[0]
*17 Tile_X0Y0_E2BEGb[1]
*18 Tile_X0Y0_E2BEGb[2]
*19 Tile_X0Y0_E2BEGb[3]
*20 Tile_X0Y0_E2BEGb[4]
*21 Tile_X0Y0_E2BEGb[5]
*22 Tile_X0Y0_E2BEGb[6]
*23 Tile_X0Y0_E2BEGb[7]
*24 Tile_X0Y0_E6BEG[0]
*25 Tile_X0Y0_E6BEG[10]
*26 Tile_X0Y0_E6BEG[11]
*27 Tile_X0Y0_E6BEG[1]
*28 Tile_X0Y0_E6BEG[2]
*29 Tile_X0Y0_E6BEG[3]
*30 Tile_X0Y0_E6BEG[4]
*31 Tile_X0Y0_E6BEG[5]
*32 Tile_X0Y0_E6BEG[6]
*33 Tile_X0Y0_E6BEG[7]
*34 Tile_X0Y0_E6BEG[8]
*35 Tile_X0Y0_E6BEG[9]
*36 Tile_X0Y0_EE4BEG[0]
*37 Tile_X0Y0_EE4BEG[10]
*38 Tile_X0Y0_EE4BEG[11]
*39 Tile_X0Y0_EE4BEG[12]
*40 Tile_X0Y0_EE4BEG[13]
*41 Tile_X0Y0_EE4BEG[14]
*42 Tile_X0Y0_EE4BEG[15]
*43 Tile_X0Y0_EE4BEG[1]
*44 Tile_X0Y0_EE4BEG[2]
*45 Tile_X0Y0_EE4BEG[3]
*46 Tile_X0Y0_EE4BEG[4]
*47 Tile_X0Y0_EE4BEG[5]
*48 Tile_X0Y0_EE4BEG[6]
*49 Tile_X0Y0_EE4BEG[7]
*50 Tile_X0Y0_EE4BEG[8]
*51 Tile_X0Y0_EE4BEG[9]
*52 Tile_X0Y0_FrameData[0]
*53 Tile_X0Y0_FrameData[10]
*54 Tile_X0Y0_FrameData[11]
*55 Tile_X0Y0_FrameData[12]
*56 Tile_X0Y0_FrameData[13]
*57 Tile_X0Y0_FrameData[14]
*58 Tile_X0Y0_FrameData[15]
*59 Tile_X0Y0_FrameData[16]
*60 Tile_X0Y0_FrameData[17]
*61 Tile_X0Y0_FrameData[18]
*62 Tile_X0Y0_FrameData[19]
*63 Tile_X0Y0_FrameData[1]
*64 Tile_X0Y0_FrameData[20]
*65 Tile_X0Y0_FrameData[21]
*66 Tile_X0Y0_FrameData[22]
*67 Tile_X0Y0_FrameData[23]
*68 Tile_X0Y0_FrameData[24]
*69 Tile_X0Y0_FrameData[25]
*70 Tile_X0Y0_FrameData[26]
*71 Tile_X0Y0_FrameData[27]
*72 Tile_X0Y0_FrameData[28]
*73 Tile_X0Y0_FrameData[29]
*74 Tile_X0Y0_FrameData[2]
*75 Tile_X0Y0_FrameData[30]
*76 Tile_X0Y0_FrameData[31]
*77 Tile_X0Y0_FrameData[3]
*78 Tile_X0Y0_FrameData[4]
*79 Tile_X0Y0_FrameData[5]
*80 Tile_X0Y0_FrameData[6]
*81 Tile_X0Y0_FrameData[7]
*82 Tile_X0Y0_FrameData[8]
*83 Tile_X0Y0_FrameData[9]
*84 Tile_X0Y0_FrameData_O[0]
*85 Tile_X0Y0_FrameData_O[10]
*86 Tile_X0Y0_FrameData_O[11]
*87 Tile_X0Y0_FrameData_O[12]
*88 Tile_X0Y0_FrameData_O[13]
*89 Tile_X0Y0_FrameData_O[14]
*90 Tile_X0Y0_FrameData_O[15]
*91 Tile_X0Y0_FrameData_O[16]
*92 Tile_X0Y0_FrameData_O[17]
*93 Tile_X0Y0_FrameData_O[18]
*94 Tile_X0Y0_FrameData_O[19]
*95 Tile_X0Y0_FrameData_O[1]
*96 Tile_X0Y0_FrameData_O[20]
*97 Tile_X0Y0_FrameData_O[21]
*98 Tile_X0Y0_FrameData_O[22]
*99 Tile_X0Y0_FrameData_O[23]
*100 Tile_X0Y0_FrameData_O[24]
*101 Tile_X0Y0_FrameData_O[25]
*102 Tile_X0Y0_FrameData_O[26]
*103 Tile_X0Y0_FrameData_O[27]
*104 Tile_X0Y0_FrameData_O[28]
*105 Tile_X0Y0_FrameData_O[29]
*106 Tile_X0Y0_FrameData_O[2]
*107 Tile_X0Y0_FrameData_O[30]
*108 Tile_X0Y0_FrameData_O[31]
*109 Tile_X0Y0_FrameData_O[3]
*110 Tile_X0Y0_FrameData_O[4]
*111 Tile_X0Y0_FrameData_O[5]
*112 Tile_X0Y0_FrameData_O[6]
*113 Tile_X0Y0_FrameData_O[7]
*114 Tile_X0Y0_FrameData_O[8]
*115 Tile_X0Y0_FrameData_O[9]
*116 Tile_X0Y0_FrameStrobe_O[0]
*117 Tile_X0Y0_FrameStrobe_O[10]
*118 Tile_X0Y0_FrameStrobe_O[11]
*119 Tile_X0Y0_FrameStrobe_O[12]
*120 Tile_X0Y0_FrameStrobe_O[13]
*121 Tile_X0Y0_FrameStrobe_O[14]
*122 Tile_X0Y0_FrameStrobe_O[15]
*123 Tile_X0Y0_FrameStrobe_O[16]
*124 Tile_X0Y0_FrameStrobe_O[17]
*125 Tile_X0Y0_FrameStrobe_O[18]
*126 Tile_X0Y0_FrameStrobe_O[19]
*127 Tile_X0Y0_FrameStrobe_O[1]
*128 Tile_X0Y0_FrameStrobe_O[2]
*129 Tile_X0Y0_FrameStrobe_O[3]
*130 Tile_X0Y0_FrameStrobe_O[4]
*131 Tile_X0Y0_FrameStrobe_O[5]
*132 Tile_X0Y0_FrameStrobe_O[6]
*133 Tile_X0Y0_FrameStrobe_O[7]
*134 Tile_X0Y0_FrameStrobe_O[8]
*135 Tile_X0Y0_FrameStrobe_O[9]
*136 Tile_X0Y0_N1BEG[0]
*137 Tile_X0Y0_N1BEG[1]
*138 Tile_X0Y0_N1BEG[2]
*139 Tile_X0Y0_N1BEG[3]
*140 Tile_X0Y0_N2BEG[0]
*141 Tile_X0Y0_N2BEG[1]
*142 Tile_X0Y0_N2BEG[2]
*143 Tile_X0Y0_N2BEG[3]
*144 Tile_X0Y0_N2BEG[4]
*145 Tile_X0Y0_N2BEG[5]
*146 Tile_X0Y0_N2BEG[6]
*147 Tile_X0Y0_N2BEG[7]
*148 Tile_X0Y0_N2BEGb[0]
*149 Tile_X0Y0_N2BEGb[1]
*150 Tile_X0Y0_N2BEGb[2]
*151 Tile_X0Y0_N2BEGb[3]
*152 Tile_X0Y0_N2BEGb[4]
*153 Tile_X0Y0_N2BEGb[5]
*154 Tile_X0Y0_N2BEGb[6]
*155 Tile_X0Y0_N2BEGb[7]
*156 Tile_X0Y0_N4BEG[0]
*157 Tile_X0Y0_N4BEG[10]
*158 Tile_X0Y0_N4BEG[11]
*159 Tile_X0Y0_N4BEG[12]
*160 Tile_X0Y0_N4BEG[13]
*161 Tile_X0Y0_N4BEG[14]
*162 Tile_X0Y0_N4BEG[15]
*163 Tile_X0Y0_N4BEG[1]
*164 Tile_X0Y0_N4BEG[2]
*165 Tile_X0Y0_N4BEG[3]
*166 Tile_X0Y0_N4BEG[4]
*167 Tile_X0Y0_N4BEG[5]
*168 Tile_X0Y0_N4BEG[6]
*169 Tile_X0Y0_N4BEG[7]
*170 Tile_X0Y0_N4BEG[8]
*171 Tile_X0Y0_N4BEG[9]
*172 Tile_X0Y0_S1END[0]
*173 Tile_X0Y0_S1END[1]
*174 Tile_X0Y0_S1END[2]
*175 Tile_X0Y0_S1END[3]
*176 Tile_X0Y0_S2END[0]
*177 Tile_X0Y0_S2END[1]
*178 Tile_X0Y0_S2END[2]
*179 Tile_X0Y0_S2END[3]
*180 Tile_X0Y0_S2END[4]
*181 Tile_X0Y0_S2END[5]
*182 Tile_X0Y0_S2END[6]
*183 Tile_X0Y0_S2END[7]
*184 Tile_X0Y0_S2MID[0]
*185 Tile_X0Y0_S2MID[1]
*186 Tile_X0Y0_S2MID[2]
*187 Tile_X0Y0_S2MID[3]
*188 Tile_X0Y0_S2MID[4]
*189 Tile_X0Y0_S2MID[5]
*190 Tile_X0Y0_S2MID[6]
*191 Tile_X0Y0_S2MID[7]
*192 Tile_X0Y0_S4END[0]
*193 Tile_X0Y0_S4END[10]
*194 Tile_X0Y0_S4END[11]
*195 Tile_X0Y0_S4END[12]
*196 Tile_X0Y0_S4END[13]
*197 Tile_X0Y0_S4END[14]
*198 Tile_X0Y0_S4END[15]
*199 Tile_X0Y0_S4END[1]
*200 Tile_X0Y0_S4END[2]
*201 Tile_X0Y0_S4END[3]
*202 Tile_X0Y0_S4END[4]
*203 Tile_X0Y0_S4END[5]
*204 Tile_X0Y0_S4END[6]
*205 Tile_X0Y0_S4END[7]
*206 Tile_X0Y0_S4END[8]
*207 Tile_X0Y0_S4END[9]
*208 Tile_X0Y0_UserCLKo
*209 Tile_X0Y0_W1END[0]
*210 Tile_X0Y0_W1END[1]
*211 Tile_X0Y0_W1END[2]
*212 Tile_X0Y0_W1END[3]
*213 Tile_X0Y0_W2END[0]
*214 Tile_X0Y0_W2END[1]
*215 Tile_X0Y0_W2END[2]
*216 Tile_X0Y0_W2END[3]
*217 Tile_X0Y0_W2END[4]
*218 Tile_X0Y0_W2END[5]
*219 Tile_X0Y0_W2END[6]
*220 Tile_X0Y0_W2END[7]
*221 Tile_X0Y0_W2MID[0]
*222 Tile_X0Y0_W2MID[1]
*223 Tile_X0Y0_W2MID[2]
*224 Tile_X0Y0_W2MID[3]
*225 Tile_X0Y0_W2MID[4]
*226 Tile_X0Y0_W2MID[5]
*227 Tile_X0Y0_W2MID[6]
*228 Tile_X0Y0_W2MID[7]
*229 Tile_X0Y0_W6END[0]
*230 Tile_X0Y0_W6END[10]
*231 Tile_X0Y0_W6END[11]
*232 Tile_X0Y0_W6END[1]
*233 Tile_X0Y0_W6END[2]
*234 Tile_X0Y0_W6END[3]
*235 Tile_X0Y0_W6END[4]
*236 Tile_X0Y0_W6END[5]
*237 Tile_X0Y0_W6END[6]
*238 Tile_X0Y0_W6END[7]
*239 Tile_X0Y0_W6END[8]
*240 Tile_X0Y0_W6END[9]
*241 Tile_X0Y0_WW4END[0]
*242 Tile_X0Y0_WW4END[10]
*243 Tile_X0Y0_WW4END[11]
*244 Tile_X0Y0_WW4END[12]
*245 Tile_X0Y0_WW4END[13]
*246 Tile_X0Y0_WW4END[14]
*247 Tile_X0Y0_WW4END[15]
*248 Tile_X0Y0_WW4END[1]
*249 Tile_X0Y0_WW4END[2]
*250 Tile_X0Y0_WW4END[3]
*251 Tile_X0Y0_WW4END[4]
*252 Tile_X0Y0_WW4END[5]
*253 Tile_X0Y0_WW4END[6]
*254 Tile_X0Y0_WW4END[7]
*255 Tile_X0Y0_WW4END[8]
*256 Tile_X0Y0_WW4END[9]
*257 Tile_X0Y1_E1BEG[0]
*258 Tile_X0Y1_E1BEG[1]
*259 Tile_X0Y1_E1BEG[2]
*260 Tile_X0Y1_E1BEG[3]
*261 Tile_X0Y1_E2BEG[0]
*262 Tile_X0Y1_E2BEG[1]
*263 Tile_X0Y1_E2BEG[2]
*264 Tile_X0Y1_E2BEG[3]
*265 Tile_X0Y1_E2BEG[4]
*266 Tile_X0Y1_E2BEG[5]
*267 Tile_X0Y1_E2BEG[6]
*268 Tile_X0Y1_E2BEG[7]
*269 Tile_X0Y1_E2BEGb[0]
*270 Tile_X0Y1_E2BEGb[1]
*271 Tile_X0Y1_E2BEGb[2]
*272 Tile_X0Y1_E2BEGb[3]
*273 Tile_X0Y1_E2BEGb[4]
*274 Tile_X0Y1_E2BEGb[5]
*275 Tile_X0Y1_E2BEGb[6]
*276 Tile_X0Y1_E2BEGb[7]
*277 Tile_X0Y1_E6BEG[0]
*278 Tile_X0Y1_E6BEG[10]
*279 Tile_X0Y1_E6BEG[11]
*280 Tile_X0Y1_E6BEG[1]
*281 Tile_X0Y1_E6BEG[2]
*282 Tile_X0Y1_E6BEG[3]
*283 Tile_X0Y1_E6BEG[4]
*284 Tile_X0Y1_E6BEG[5]
*285 Tile_X0Y1_E6BEG[6]
*286 Tile_X0Y1_E6BEG[7]
*287 Tile_X0Y1_E6BEG[8]
*288 Tile_X0Y1_E6BEG[9]
*289 Tile_X0Y1_EE4BEG[0]
*290 Tile_X0Y1_EE4BEG[10]
*291 Tile_X0Y1_EE4BEG[11]
*292 Tile_X0Y1_EE4BEG[12]
*293 Tile_X0Y1_EE4BEG[13]
*294 Tile_X0Y1_EE4BEG[14]
*295 Tile_X0Y1_EE4BEG[15]
*296 Tile_X0Y1_EE4BEG[1]
*297 Tile_X0Y1_EE4BEG[2]
*298 Tile_X0Y1_EE4BEG[3]
*299 Tile_X0Y1_EE4BEG[4]
*300 Tile_X0Y1_EE4BEG[5]
*301 Tile_X0Y1_EE4BEG[6]
*302 Tile_X0Y1_EE4BEG[7]
*303 Tile_X0Y1_EE4BEG[8]
*304 Tile_X0Y1_EE4BEG[9]
*305 Tile_X0Y1_FrameData[0]
*306 Tile_X0Y1_FrameData[10]
*307 Tile_X0Y1_FrameData[11]
*308 Tile_X0Y1_FrameData[12]
*309 Tile_X0Y1_FrameData[13]
*310 Tile_X0Y1_FrameData[14]
*311 Tile_X0Y1_FrameData[15]
*312 Tile_X0Y1_FrameData[16]
*313 Tile_X0Y1_FrameData[17]
*314 Tile_X0Y1_FrameData[18]
*315 Tile_X0Y1_FrameData[19]
*316 Tile_X0Y1_FrameData[1]
*317 Tile_X0Y1_FrameData[20]
*318 Tile_X0Y1_FrameData[21]
*319 Tile_X0Y1_FrameData[22]
*320 Tile_X0Y1_FrameData[23]
*321 Tile_X0Y1_FrameData[24]
*322 Tile_X0Y1_FrameData[25]
*323 Tile_X0Y1_FrameData[26]
*324 Tile_X0Y1_FrameData[27]
*325 Tile_X0Y1_FrameData[28]
*326 Tile_X0Y1_FrameData[29]
*327 Tile_X0Y1_FrameData[2]
*328 Tile_X0Y1_FrameData[30]
*329 Tile_X0Y1_FrameData[31]
*330 Tile_X0Y1_FrameData[3]
*331 Tile_X0Y1_FrameData[4]
*332 Tile_X0Y1_FrameData[5]
*333 Tile_X0Y1_FrameData[6]
*334 Tile_X0Y1_FrameData[7]
*335 Tile_X0Y1_FrameData[8]
*336 Tile_X0Y1_FrameData[9]
*337 Tile_X0Y1_FrameData_O[0]
*338 Tile_X0Y1_FrameData_O[10]
*339 Tile_X0Y1_FrameData_O[11]
*340 Tile_X0Y1_FrameData_O[12]
*341 Tile_X0Y1_FrameData_O[13]
*342 Tile_X0Y1_FrameData_O[14]
*343 Tile_X0Y1_FrameData_O[15]
*344 Tile_X0Y1_FrameData_O[16]
*345 Tile_X0Y1_FrameData_O[17]
*346 Tile_X0Y1_FrameData_O[18]
*347 Tile_X0Y1_FrameData_O[19]
*348 Tile_X0Y1_FrameData_O[1]
*349 Tile_X0Y1_FrameData_O[20]
*350 Tile_X0Y1_FrameData_O[21]
*351 Tile_X0Y1_FrameData_O[22]
*352 Tile_X0Y1_FrameData_O[23]
*353 Tile_X0Y1_FrameData_O[24]
*354 Tile_X0Y1_FrameData_O[25]
*355 Tile_X0Y1_FrameData_O[26]
*356 Tile_X0Y1_FrameData_O[27]
*357 Tile_X0Y1_FrameData_O[28]
*358 Tile_X0Y1_FrameData_O[29]
*359 Tile_X0Y1_FrameData_O[2]
*360 Tile_X0Y1_FrameData_O[30]
*361 Tile_X0Y1_FrameData_O[31]
*362 Tile_X0Y1_FrameData_O[3]
*363 Tile_X0Y1_FrameData_O[4]
*364 Tile_X0Y1_FrameData_O[5]
*365 Tile_X0Y1_FrameData_O[6]
*366 Tile_X0Y1_FrameData_O[7]
*367 Tile_X0Y1_FrameData_O[8]
*368 Tile_X0Y1_FrameData_O[9]
*369 Tile_X0Y1_FrameStrobe[0]
*370 Tile_X0Y1_FrameStrobe[10]
*371 Tile_X0Y1_FrameStrobe[11]
*372 Tile_X0Y1_FrameStrobe[12]
*373 Tile_X0Y1_FrameStrobe[13]
*374 Tile_X0Y1_FrameStrobe[14]
*375 Tile_X0Y1_FrameStrobe[15]
*376 Tile_X0Y1_FrameStrobe[16]
*377 Tile_X0Y1_FrameStrobe[17]
*378 Tile_X0Y1_FrameStrobe[18]
*379 Tile_X0Y1_FrameStrobe[19]
*380 Tile_X0Y1_FrameStrobe[1]
*381 Tile_X0Y1_FrameStrobe[2]
*382 Tile_X0Y1_FrameStrobe[3]
*383 Tile_X0Y1_FrameStrobe[4]
*384 Tile_X0Y1_FrameStrobe[5]
*385 Tile_X0Y1_FrameStrobe[6]
*386 Tile_X0Y1_FrameStrobe[7]
*387 Tile_X0Y1_FrameStrobe[8]
*388 Tile_X0Y1_FrameStrobe[9]
*389 Tile_X0Y1_N1END[0]
*390 Tile_X0Y1_N1END[1]
*391 Tile_X0Y1_N1END[2]
*392 Tile_X0Y1_N1END[3]
*393 Tile_X0Y1_N2END[0]
*394 Tile_X0Y1_N2END[1]
*395 Tile_X0Y1_N2END[2]
*396 Tile_X0Y1_N2END[3]
*397 Tile_X0Y1_N2END[4]
*398 Tile_X0Y1_N2END[5]
*399 Tile_X0Y1_N2END[6]
*400 Tile_X0Y1_N2END[7]
*401 Tile_X0Y1_N2MID[0]
*402 Tile_X0Y1_N2MID[1]
*403 Tile_X0Y1_N2MID[2]
*404 Tile_X0Y1_N2MID[3]
*405 Tile_X0Y1_N2MID[4]
*406 Tile_X0Y1_N2MID[5]
*407 Tile_X0Y1_N2MID[6]
*408 Tile_X0Y1_N2MID[7]
*409 Tile_X0Y1_N4END[0]
*410 Tile_X0Y1_N4END[10]
*411 Tile_X0Y1_N4END[11]
*412 Tile_X0Y1_N4END[12]
*413 Tile_X0Y1_N4END[13]
*414 Tile_X0Y1_N4END[14]
*415 Tile_X0Y1_N4END[15]
*416 Tile_X0Y1_N4END[1]
*417 Tile_X0Y1_N4END[2]
*418 Tile_X0Y1_N4END[3]
*419 Tile_X0Y1_N4END[4]
*420 Tile_X0Y1_N4END[5]
*421 Tile_X0Y1_N4END[6]
*422 Tile_X0Y1_N4END[7]
*423 Tile_X0Y1_N4END[8]
*424 Tile_X0Y1_N4END[9]
*425 Tile_X0Y1_S1BEG[0]
*426 Tile_X0Y1_S1BEG[1]
*427 Tile_X0Y1_S1BEG[2]
*428 Tile_X0Y1_S1BEG[3]
*429 Tile_X0Y1_S2BEG[0]
*430 Tile_X0Y1_S2BEG[1]
*431 Tile_X0Y1_S2BEG[2]
*432 Tile_X0Y1_S2BEG[3]
*433 Tile_X0Y1_S2BEG[4]
*434 Tile_X0Y1_S2BEG[5]
*435 Tile_X0Y1_S2BEG[6]
*436 Tile_X0Y1_S2BEG[7]
*437 Tile_X0Y1_S2BEGb[0]
*438 Tile_X0Y1_S2BEGb[1]
*439 Tile_X0Y1_S2BEGb[2]
*440 Tile_X0Y1_S2BEGb[3]
*441 Tile_X0Y1_S2BEGb[4]
*442 Tile_X0Y1_S2BEGb[5]
*443 Tile_X0Y1_S2BEGb[6]
*444 Tile_X0Y1_S2BEGb[7]
*445 Tile_X0Y1_S4BEG[0]
*446 Tile_X0Y1_S4BEG[10]
*447 Tile_X0Y1_S4BEG[11]
*448 Tile_X0Y1_S4BEG[12]
*449 Tile_X0Y1_S4BEG[13]
*450 Tile_X0Y1_S4BEG[14]
*451 Tile_X0Y1_S4BEG[15]
*452 Tile_X0Y1_S4BEG[1]
*453 Tile_X0Y1_S4BEG[2]
*454 Tile_X0Y1_S4BEG[3]
*455 Tile_X0Y1_S4BEG[4]
*456 Tile_X0Y1_S4BEG[5]
*457 Tile_X0Y1_S4BEG[6]
*458 Tile_X0Y1_S4BEG[7]
*459 Tile_X0Y1_S4BEG[8]
*460 Tile_X0Y1_S4BEG[9]
*461 Tile_X0Y1_UserCLK
*462 Tile_X0Y1_W1END[0]
*463 Tile_X0Y1_W1END[1]
*464 Tile_X0Y1_W1END[2]
*465 Tile_X0Y1_W1END[3]
*466 Tile_X0Y1_W2END[0]
*467 Tile_X0Y1_W2END[1]
*468 Tile_X0Y1_W2END[2]
*469 Tile_X0Y1_W2END[3]
*470 Tile_X0Y1_W2END[4]
*471 Tile_X0Y1_W2END[5]
*472 Tile_X0Y1_W2END[6]
*473 Tile_X0Y1_W2END[7]
*474 Tile_X0Y1_W2MID[0]
*475 Tile_X0Y1_W2MID[1]
*476 Tile_X0Y1_W2MID[2]
*477 Tile_X0Y1_W2MID[3]
*478 Tile_X0Y1_W2MID[4]
*479 Tile_X0Y1_W2MID[5]
*480 Tile_X0Y1_W2MID[6]
*481 Tile_X0Y1_W2MID[7]
*482 Tile_X0Y1_W6END[0]
*483 Tile_X0Y1_W6END[10]
*484 Tile_X0Y1_W6END[11]
*485 Tile_X0Y1_W6END[1]
*486 Tile_X0Y1_W6END[2]
*487 Tile_X0Y1_W6END[3]
*488 Tile_X0Y1_W6END[4]
*489 Tile_X0Y1_W6END[5]
*490 Tile_X0Y1_W6END[6]
*491 Tile_X0Y1_W6END[7]
*492 Tile_X0Y1_W6END[8]
*493 Tile_X0Y1_W6END[9]
*494 Tile_X0Y1_WW4END[0]
*495 Tile_X0Y1_WW4END[10]
*496 Tile_X0Y1_WW4END[11]
*497 Tile_X0Y1_WW4END[12]
*498 Tile_X0Y1_WW4END[13]
*499 Tile_X0Y1_WW4END[14]
*500 Tile_X0Y1_WW4END[15]
*501 Tile_X0Y1_WW4END[1]
*502 Tile_X0Y1_WW4END[2]
*503 Tile_X0Y1_WW4END[3]
*504 Tile_X0Y1_WW4END[4]
*505 Tile_X0Y1_WW4END[5]
*506 Tile_X0Y1_WW4END[6]
*507 Tile_X0Y1_WW4END[7]
*508 Tile_X0Y1_WW4END[8]
*509 Tile_X0Y1_WW4END[9]
*510 UIO_IN_TT_PROJECT0
*511 UIO_IN_TT_PROJECT1
*512 UIO_IN_TT_PROJECT2
*513 UIO_IN_TT_PROJECT3
*514 UIO_IN_TT_PROJECT4
*515 UIO_IN_TT_PROJECT5
*516 UIO_IN_TT_PROJECT6
*517 UIO_IN_TT_PROJECT7
*518 UIO_OE_TT_PROJECT0
*519 UIO_OE_TT_PROJECT1
*520 UIO_OE_TT_PROJECT2
*521 UIO_OE_TT_PROJECT3
*522 UIO_OE_TT_PROJECT4
*523 UIO_OE_TT_PROJECT5
*524 UIO_OE_TT_PROJECT6
*525 UIO_OE_TT_PROJECT7
*526 UIO_OUT_TT_PROJECT0
*527 UIO_OUT_TT_PROJECT1
*528 UIO_OUT_TT_PROJECT2
*529 UIO_OUT_TT_PROJECT3
*530 UIO_OUT_TT_PROJECT4
*531 UIO_OUT_TT_PROJECT5
*532 UIO_OUT_TT_PROJECT6
*533 UIO_OUT_TT_PROJECT7
*534 UI_IN_TT_PROJECT0
*535 UI_IN_TT_PROJECT1
*536 UI_IN_TT_PROJECT2
*537 UI_IN_TT_PROJECT3
*538 UI_IN_TT_PROJECT4
*539 UI_IN_TT_PROJECT5
*540 UI_IN_TT_PROJECT6
*541 UI_IN_TT_PROJECT7
*542 UO_OUT_TT_PROJECT0
*543 UO_OUT_TT_PROJECT1
*544 UO_OUT_TT_PROJECT2
*545 UO_OUT_TT_PROJECT3
*546 UO_OUT_TT_PROJECT4
*547 UO_OUT_TT_PROJECT5
*548 UO_OUT_TT_PROJECT6
*549 UO_OUT_TT_PROJECT7
*552 Tile_X0Y0_W_TT_IF2_top\.Inst_W_TT_IF2_top_ConfigMem\.Inst_frame0_bit0\.Q
*553 Tile_X0Y0_W_TT_IF2_top\.Inst_W_TT_IF2_top_ConfigMem\.Inst_frame0_bit1\.Q
*554 Tile_X0Y0_W_TT_IF2_top\.Inst_W_TT_IF2_top_ConfigMem\.Inst_frame0_bit10\.Q
*555 Tile_X0Y0_W_TT_IF2_top\.Inst_W_TT_IF2_top_ConfigMem\.Inst_frame0_bit11\.Q
*556 Tile_X0Y0_W_TT_IF2_top\.Inst_W_TT_IF2_top_ConfigMem\.Inst_frame0_bit12\.Q
*557 Tile_X0Y0_W_TT_IF2_top\.Inst_W_TT_IF2_top_ConfigMem\.Inst_frame0_bit13\.Q
*558 Tile_X0Y0_W_TT_IF2_top\.Inst_W_TT_IF2_top_ConfigMem\.Inst_frame0_bit14\.Q
*559 Tile_X0Y0_W_TT_IF2_top\.Inst_W_TT_IF2_top_ConfigMem\.Inst_frame0_bit15\.Q
*560 Tile_X0Y0_W_TT_IF2_top\.Inst_W_TT_IF2_top_ConfigMem\.Inst_frame0_bit16\.Q
*561 Tile_X0Y0_W_TT_IF2_top\.Inst_W_TT_IF2_top_ConfigMem\.Inst_frame0_bit17\.Q
*562 Tile_X0Y0_W_TT_IF2_top\.Inst_W_TT_IF2_top_ConfigMem\.Inst_frame0_bit18\.Q
*563 Tile_X0Y0_W_TT_IF2_top\.Inst_W_TT_IF2_top_ConfigMem\.Inst_frame0_bit19\.Q
*564 Tile_X0Y0_W_TT_IF2_top\.Inst_W_TT_IF2_top_ConfigMem\.Inst_frame0_bit2\.Q
*565 Tile_X0Y0_W_TT_IF2_top\.Inst_W_TT_IF2_top_ConfigMem\.Inst_frame0_bit20\.Q
*566 Tile_X0Y0_W_TT_IF2_top\.Inst_W_TT_IF2_top_ConfigMem\.Inst_frame0_bit21\.Q
*567 Tile_X0Y0_W_TT_IF2_top\.Inst_W_TT_IF2_top_ConfigMem\.Inst_frame0_bit22\.Q
*568 Tile_X0Y0_W_TT_IF2_top\.Inst_W_TT_IF2_top_ConfigMem\.Inst_frame0_bit23\.Q
*569 Tile_X0Y0_W_TT_IF2_top\.Inst_W_TT_IF2_top_ConfigMem\.Inst_frame0_bit24\.Q
*570 Tile_X0Y0_W_TT_IF2_top\.Inst_W_TT_IF2_top_ConfigMem\.Inst_frame0_bit25\.Q
*571 Tile_X0Y0_W_TT_IF2_top\.Inst_W_TT_IF2_top_ConfigMem\.Inst_frame0_bit26\.Q
*572 Tile_X0Y0_W_TT_IF2_top\.Inst_W_TT_IF2_top_ConfigMem\.Inst_frame0_bit27\.Q
*573 Tile_X0Y0_W_TT_IF2_top\.Inst_W_TT_IF2_top_ConfigMem\.Inst_frame0_bit28\.Q
*574 Tile_X0Y0_W_TT_IF2_top\.Inst_W_TT_IF2_top_ConfigMem\.Inst_frame0_bit29\.Q
*575 Tile_X0Y0_W_TT_IF2_top\.Inst_W_TT_IF2_top_ConfigMem\.Inst_frame0_bit3\.Q
*576 Tile_X0Y0_W_TT_IF2_top\.Inst_W_TT_IF2_top_ConfigMem\.Inst_frame0_bit30\.Q
*577 Tile_X0Y0_W_TT_IF2_top\.Inst_W_TT_IF2_top_ConfigMem\.Inst_frame0_bit31\.Q
*578 Tile_X0Y0_W_TT_IF2_top\.Inst_W_TT_IF2_top_ConfigMem\.Inst_frame0_bit4\.Q
*579 Tile_X0Y0_W_TT_IF2_top\.Inst_W_TT_IF2_top_ConfigMem\.Inst_frame0_bit5\.Q
*580 Tile_X0Y0_W_TT_IF2_top\.Inst_W_TT_IF2_top_ConfigMem\.Inst_frame0_bit6\.Q
*581 Tile_X0Y0_W_TT_IF2_top\.Inst_W_TT_IF2_top_ConfigMem\.Inst_frame0_bit7\.Q
*582 Tile_X0Y0_W_TT_IF2_top\.Inst_W_TT_IF2_top_ConfigMem\.Inst_frame0_bit8\.Q
*583 Tile_X0Y0_W_TT_IF2_top\.Inst_W_TT_IF2_top_ConfigMem\.Inst_frame0_bit9\.Q
*584 Tile_X0Y0_W_TT_IF2_top\.Inst_W_TT_IF2_top_ConfigMem\.Inst_frame1_bit0\.Q
*585 Tile_X0Y0_W_TT_IF2_top\.Inst_W_TT_IF2_top_ConfigMem\.Inst_frame1_bit1\.Q
*586 Tile_X0Y0_W_TT_IF2_top\.Inst_W_TT_IF2_top_ConfigMem\.Inst_frame1_bit10\.Q
*587 Tile_X0Y0_W_TT_IF2_top\.Inst_W_TT_IF2_top_ConfigMem\.Inst_frame1_bit11\.Q
*588 Tile_X0Y0_W_TT_IF2_top\.Inst_W_TT_IF2_top_ConfigMem\.Inst_frame1_bit12\.Q
*589 Tile_X0Y0_W_TT_IF2_top\.Inst_W_TT_IF2_top_ConfigMem\.Inst_frame1_bit13\.Q
*590 Tile_X0Y0_W_TT_IF2_top\.Inst_W_TT_IF2_top_ConfigMem\.Inst_frame1_bit14\.Q
*591 Tile_X0Y0_W_TT_IF2_top\.Inst_W_TT_IF2_top_ConfigMem\.Inst_frame1_bit15\.Q
*592 Tile_X0Y0_W_TT_IF2_top\.Inst_W_TT_IF2_top_ConfigMem\.Inst_frame1_bit16\.Q
*593 Tile_X0Y0_W_TT_IF2_top\.Inst_W_TT_IF2_top_ConfigMem\.Inst_frame1_bit17\.Q
*594 Tile_X0Y0_W_TT_IF2_top\.Inst_W_TT_IF2_top_ConfigMem\.Inst_frame1_bit18\.Q
*595 Tile_X0Y0_W_TT_IF2_top\.Inst_W_TT_IF2_top_ConfigMem\.Inst_frame1_bit19\.Q
*596 Tile_X0Y0_W_TT_IF2_top\.Inst_W_TT_IF2_top_ConfigMem\.Inst_frame1_bit2\.Q
*597 Tile_X0Y0_W_TT_IF2_top\.Inst_W_TT_IF2_top_ConfigMem\.Inst_frame1_bit20\.Q
*598 Tile_X0Y0_W_TT_IF2_top\.Inst_W_TT_IF2_top_ConfigMem\.Inst_frame1_bit21\.Q
*599 Tile_X0Y0_W_TT_IF2_top\.Inst_W_TT_IF2_top_ConfigMem\.Inst_frame1_bit22\.Q
*600 Tile_X0Y0_W_TT_IF2_top\.Inst_W_TT_IF2_top_ConfigMem\.Inst_frame1_bit23\.Q
*601 Tile_X0Y0_W_TT_IF2_top\.Inst_W_TT_IF2_top_ConfigMem\.Inst_frame1_bit24\.Q
*602 Tile_X0Y0_W_TT_IF2_top\.Inst_W_TT_IF2_top_ConfigMem\.Inst_frame1_bit25\.Q
*603 Tile_X0Y0_W_TT_IF2_top\.Inst_W_TT_IF2_top_ConfigMem\.Inst_frame1_bit26\.Q
*604 Tile_X0Y0_W_TT_IF2_top\.Inst_W_TT_IF2_top_ConfigMem\.Inst_frame1_bit27\.Q
*605 Tile_X0Y0_W_TT_IF2_top\.Inst_W_TT_IF2_top_ConfigMem\.Inst_frame1_bit28\.Q
*606 Tile_X0Y0_W_TT_IF2_top\.Inst_W_TT_IF2_top_ConfigMem\.Inst_frame1_bit29\.Q
*607 Tile_X0Y0_W_TT_IF2_top\.Inst_W_TT_IF2_top_ConfigMem\.Inst_frame1_bit3\.Q
*608 Tile_X0Y0_W_TT_IF2_top\.Inst_W_TT_IF2_top_ConfigMem\.Inst_frame1_bit30\.Q
*609 Tile_X0Y0_W_TT_IF2_top\.Inst_W_TT_IF2_top_ConfigMem\.Inst_frame1_bit31\.Q
*610 Tile_X0Y0_W_TT_IF2_top\.Inst_W_TT_IF2_top_ConfigMem\.Inst_frame1_bit4\.Q
*611 Tile_X0Y0_W_TT_IF2_top\.Inst_W_TT_IF2_top_ConfigMem\.Inst_frame1_bit5\.Q
*612 Tile_X0Y0_W_TT_IF2_top\.Inst_W_TT_IF2_top_ConfigMem\.Inst_frame1_bit6\.Q
*613 Tile_X0Y0_W_TT_IF2_top\.Inst_W_TT_IF2_top_ConfigMem\.Inst_frame1_bit7\.Q
*614 Tile_X0Y0_W_TT_IF2_top\.Inst_W_TT_IF2_top_ConfigMem\.Inst_frame1_bit8\.Q
*615 Tile_X0Y0_W_TT_IF2_top\.Inst_W_TT_IF2_top_ConfigMem\.Inst_frame1_bit9\.Q
*616 Tile_X0Y0_W_TT_IF2_top\.Inst_W_TT_IF2_top_ConfigMem\.Inst_frame2_bit0\.Q
*617 Tile_X0Y0_W_TT_IF2_top\.Inst_W_TT_IF2_top_ConfigMem\.Inst_frame2_bit1\.Q
*618 Tile_X0Y0_W_TT_IF2_top\.Inst_W_TT_IF2_top_ConfigMem\.Inst_frame2_bit10\.Q
*619 Tile_X0Y0_W_TT_IF2_top\.Inst_W_TT_IF2_top_ConfigMem\.Inst_frame2_bit11\.Q
*620 Tile_X0Y0_W_TT_IF2_top\.Inst_W_TT_IF2_top_ConfigMem\.Inst_frame2_bit12\.Q
*621 Tile_X0Y0_W_TT_IF2_top\.Inst_W_TT_IF2_top_ConfigMem\.Inst_frame2_bit13\.Q
*622 Tile_X0Y0_W_TT_IF2_top\.Inst_W_TT_IF2_top_ConfigMem\.Inst_frame2_bit14\.Q
*623 Tile_X0Y0_W_TT_IF2_top\.Inst_W_TT_IF2_top_ConfigMem\.Inst_frame2_bit15\.Q
*624 Tile_X0Y0_W_TT_IF2_top\.Inst_W_TT_IF2_top_ConfigMem\.Inst_frame2_bit16\.Q
*625 Tile_X0Y0_W_TT_IF2_top\.Inst_W_TT_IF2_top_ConfigMem\.Inst_frame2_bit17\.Q
*626 Tile_X0Y0_W_TT_IF2_top\.Inst_W_TT_IF2_top_ConfigMem\.Inst_frame2_bit18\.Q
*627 Tile_X0Y0_W_TT_IF2_top\.Inst_W_TT_IF2_top_ConfigMem\.Inst_frame2_bit19\.Q
*628 Tile_X0Y0_W_TT_IF2_top\.Inst_W_TT_IF2_top_ConfigMem\.Inst_frame2_bit2\.Q
*629 Tile_X0Y0_W_TT_IF2_top\.Inst_W_TT_IF2_top_ConfigMem\.Inst_frame2_bit20\.Q
*630 Tile_X0Y0_W_TT_IF2_top\.Inst_W_TT_IF2_top_ConfigMem\.Inst_frame2_bit21\.Q
*631 Tile_X0Y0_W_TT_IF2_top\.Inst_W_TT_IF2_top_ConfigMem\.Inst_frame2_bit22\.Q
*632 Tile_X0Y0_W_TT_IF2_top\.Inst_W_TT_IF2_top_ConfigMem\.Inst_frame2_bit23\.Q
*633 Tile_X0Y0_W_TT_IF2_top\.Inst_W_TT_IF2_top_ConfigMem\.Inst_frame2_bit24\.Q
*634 Tile_X0Y0_W_TT_IF2_top\.Inst_W_TT_IF2_top_ConfigMem\.Inst_frame2_bit25\.Q
*635 Tile_X0Y0_W_TT_IF2_top\.Inst_W_TT_IF2_top_ConfigMem\.Inst_frame2_bit26\.Q
*636 Tile_X0Y0_W_TT_IF2_top\.Inst_W_TT_IF2_top_ConfigMem\.Inst_frame2_bit27\.Q
*637 Tile_X0Y0_W_TT_IF2_top\.Inst_W_TT_IF2_top_ConfigMem\.Inst_frame2_bit28\.Q
*638 Tile_X0Y0_W_TT_IF2_top\.Inst_W_TT_IF2_top_ConfigMem\.Inst_frame2_bit29\.Q
*639 Tile_X0Y0_W_TT_IF2_top\.Inst_W_TT_IF2_top_ConfigMem\.Inst_frame2_bit3\.Q
*640 Tile_X0Y0_W_TT_IF2_top\.Inst_W_TT_IF2_top_ConfigMem\.Inst_frame2_bit30\.Q
*641 Tile_X0Y0_W_TT_IF2_top\.Inst_W_TT_IF2_top_ConfigMem\.Inst_frame2_bit31\.Q
*642 Tile_X0Y0_W_TT_IF2_top\.Inst_W_TT_IF2_top_ConfigMem\.Inst_frame2_bit4\.Q
*643 Tile_X0Y0_W_TT_IF2_top\.Inst_W_TT_IF2_top_ConfigMem\.Inst_frame2_bit5\.Q
*644 Tile_X0Y0_W_TT_IF2_top\.Inst_W_TT_IF2_top_ConfigMem\.Inst_frame2_bit6\.Q
*645 Tile_X0Y0_W_TT_IF2_top\.Inst_W_TT_IF2_top_ConfigMem\.Inst_frame2_bit7\.Q
*646 Tile_X0Y0_W_TT_IF2_top\.Inst_W_TT_IF2_top_ConfigMem\.Inst_frame2_bit8\.Q
*647 Tile_X0Y0_W_TT_IF2_top\.Inst_W_TT_IF2_top_ConfigMem\.Inst_frame2_bit9\.Q
*648 Tile_X0Y0_W_TT_IF2_top\.Inst_W_TT_IF2_top_ConfigMem\.Inst_frame3_bit0\.Q
*649 Tile_X0Y0_W_TT_IF2_top\.Inst_W_TT_IF2_top_ConfigMem\.Inst_frame3_bit1\.Q
*650 Tile_X0Y0_W_TT_IF2_top\.Inst_W_TT_IF2_top_ConfigMem\.Inst_frame3_bit10\.Q
*651 Tile_X0Y0_W_TT_IF2_top\.Inst_W_TT_IF2_top_ConfigMem\.Inst_frame3_bit11\.Q
*652 Tile_X0Y0_W_TT_IF2_top\.Inst_W_TT_IF2_top_ConfigMem\.Inst_frame3_bit12\.Q
*653 Tile_X0Y0_W_TT_IF2_top\.Inst_W_TT_IF2_top_ConfigMem\.Inst_frame3_bit13\.Q
*654 Tile_X0Y0_W_TT_IF2_top\.Inst_W_TT_IF2_top_ConfigMem\.Inst_frame3_bit14\.Q
*655 Tile_X0Y0_W_TT_IF2_top\.Inst_W_TT_IF2_top_ConfigMem\.Inst_frame3_bit15\.Q
*656 Tile_X0Y0_W_TT_IF2_top\.Inst_W_TT_IF2_top_ConfigMem\.Inst_frame3_bit16\.Q
*657 Tile_X0Y0_W_TT_IF2_top\.Inst_W_TT_IF2_top_ConfigMem\.Inst_frame3_bit17\.Q
*658 Tile_X0Y0_W_TT_IF2_top\.Inst_W_TT_IF2_top_ConfigMem\.Inst_frame3_bit18\.Q
*659 Tile_X0Y0_W_TT_IF2_top\.Inst_W_TT_IF2_top_ConfigMem\.Inst_frame3_bit19\.Q
*660 Tile_X0Y0_W_TT_IF2_top\.Inst_W_TT_IF2_top_ConfigMem\.Inst_frame3_bit2\.Q
*661 Tile_X0Y0_W_TT_IF2_top\.Inst_W_TT_IF2_top_ConfigMem\.Inst_frame3_bit20\.Q
*662 Tile_X0Y0_W_TT_IF2_top\.Inst_W_TT_IF2_top_ConfigMem\.Inst_frame3_bit21\.Q
*663 Tile_X0Y0_W_TT_IF2_top\.Inst_W_TT_IF2_top_ConfigMem\.Inst_frame3_bit22\.Q
*664 Tile_X0Y0_W_TT_IF2_top\.Inst_W_TT_IF2_top_ConfigMem\.Inst_frame3_bit23\.Q
*665 Tile_X0Y0_W_TT_IF2_top\.Inst_W_TT_IF2_top_ConfigMem\.Inst_frame3_bit24\.Q
*666 Tile_X0Y0_W_TT_IF2_top\.Inst_W_TT_IF2_top_ConfigMem\.Inst_frame3_bit25\.Q
*667 Tile_X0Y0_W_TT_IF2_top\.Inst_W_TT_IF2_top_ConfigMem\.Inst_frame3_bit26\.Q
*668 Tile_X0Y0_W_TT_IF2_top\.Inst_W_TT_IF2_top_ConfigMem\.Inst_frame3_bit27\.Q
*669 Tile_X0Y0_W_TT_IF2_top\.Inst_W_TT_IF2_top_ConfigMem\.Inst_frame3_bit28\.Q
*670 Tile_X0Y0_W_TT_IF2_top\.Inst_W_TT_IF2_top_ConfigMem\.Inst_frame3_bit29\.Q
*671 Tile_X0Y0_W_TT_IF2_top\.Inst_W_TT_IF2_top_ConfigMem\.Inst_frame3_bit3\.Q
*672 Tile_X0Y0_W_TT_IF2_top\.Inst_W_TT_IF2_top_ConfigMem\.Inst_frame3_bit30\.Q
*673 Tile_X0Y0_W_TT_IF2_top\.Inst_W_TT_IF2_top_ConfigMem\.Inst_frame3_bit31\.Q
*674 Tile_X0Y0_W_TT_IF2_top\.Inst_W_TT_IF2_top_ConfigMem\.Inst_frame3_bit4\.Q
*675 Tile_X0Y0_W_TT_IF2_top\.Inst_W_TT_IF2_top_ConfigMem\.Inst_frame3_bit5\.Q
*676 Tile_X0Y0_W_TT_IF2_top\.Inst_W_TT_IF2_top_ConfigMem\.Inst_frame3_bit6\.Q
*677 Tile_X0Y0_W_TT_IF2_top\.Inst_W_TT_IF2_top_ConfigMem\.Inst_frame3_bit7\.Q
*678 Tile_X0Y0_W_TT_IF2_top\.Inst_W_TT_IF2_top_ConfigMem\.Inst_frame3_bit8\.Q
*679 Tile_X0Y0_W_TT_IF2_top\.Inst_W_TT_IF2_top_ConfigMem\.Inst_frame3_bit9\.Q
*680 Tile_X0Y0_W_TT_IF2_top\.Inst_W_TT_IF2_top_ConfigMem\.Inst_frame4_bit0\.Q
*681 Tile_X0Y0_W_TT_IF2_top\.Inst_W_TT_IF2_top_ConfigMem\.Inst_frame4_bit1\.Q
*682 Tile_X0Y0_W_TT_IF2_top\.Inst_W_TT_IF2_top_ConfigMem\.Inst_frame4_bit10\.Q
*683 Tile_X0Y0_W_TT_IF2_top\.Inst_W_TT_IF2_top_ConfigMem\.Inst_frame4_bit11\.Q
*684 Tile_X0Y0_W_TT_IF2_top\.Inst_W_TT_IF2_top_ConfigMem\.Inst_frame4_bit12\.Q
*685 Tile_X0Y0_W_TT_IF2_top\.Inst_W_TT_IF2_top_ConfigMem\.Inst_frame4_bit13\.Q
*686 Tile_X0Y0_W_TT_IF2_top\.Inst_W_TT_IF2_top_ConfigMem\.Inst_frame4_bit14\.Q
*687 Tile_X0Y0_W_TT_IF2_top\.Inst_W_TT_IF2_top_ConfigMem\.Inst_frame4_bit15\.Q
*688 Tile_X0Y0_W_TT_IF2_top\.Inst_W_TT_IF2_top_ConfigMem\.Inst_frame4_bit16\.Q
*689 Tile_X0Y0_W_TT_IF2_top\.Inst_W_TT_IF2_top_ConfigMem\.Inst_frame4_bit17\.Q
*690 Tile_X0Y0_W_TT_IF2_top\.Inst_W_TT_IF2_top_ConfigMem\.Inst_frame4_bit18\.Q
*691 Tile_X0Y0_W_TT_IF2_top\.Inst_W_TT_IF2_top_ConfigMem\.Inst_frame4_bit19\.Q
*692 Tile_X0Y0_W_TT_IF2_top\.Inst_W_TT_IF2_top_ConfigMem\.Inst_frame4_bit2\.Q
*693 Tile_X0Y0_W_TT_IF2_top\.Inst_W_TT_IF2_top_ConfigMem\.Inst_frame4_bit20\.Q
*694 Tile_X0Y0_W_TT_IF2_top\.Inst_W_TT_IF2_top_ConfigMem\.Inst_frame4_bit21\.Q
*695 Tile_X0Y0_W_TT_IF2_top\.Inst_W_TT_IF2_top_ConfigMem\.Inst_frame4_bit22\.Q
*696 Tile_X0Y0_W_TT_IF2_top\.Inst_W_TT_IF2_top_ConfigMem\.Inst_frame4_bit23\.Q
*697 Tile_X0Y0_W_TT_IF2_top\.Inst_W_TT_IF2_top_ConfigMem\.Inst_frame4_bit24\.Q
*698 Tile_X0Y0_W_TT_IF2_top\.Inst_W_TT_IF2_top_ConfigMem\.Inst_frame4_bit25\.Q
*699 Tile_X0Y0_W_TT_IF2_top\.Inst_W_TT_IF2_top_ConfigMem\.Inst_frame4_bit26\.Q
*700 Tile_X0Y0_W_TT_IF2_top\.Inst_W_TT_IF2_top_ConfigMem\.Inst_frame4_bit27\.Q
*701 Tile_X0Y0_W_TT_IF2_top\.Inst_W_TT_IF2_top_ConfigMem\.Inst_frame4_bit28\.Q
*702 Tile_X0Y0_W_TT_IF2_top\.Inst_W_TT_IF2_top_ConfigMem\.Inst_frame4_bit29\.Q
*703 Tile_X0Y0_W_TT_IF2_top\.Inst_W_TT_IF2_top_ConfigMem\.Inst_frame4_bit3\.Q
*704 Tile_X0Y0_W_TT_IF2_top\.Inst_W_TT_IF2_top_ConfigMem\.Inst_frame4_bit30\.Q
*705 Tile_X0Y0_W_TT_IF2_top\.Inst_W_TT_IF2_top_ConfigMem\.Inst_frame4_bit31\.Q
*706 Tile_X0Y0_W_TT_IF2_top\.Inst_W_TT_IF2_top_ConfigMem\.Inst_frame4_bit4\.Q
*707 Tile_X0Y0_W_TT_IF2_top\.Inst_W_TT_IF2_top_ConfigMem\.Inst_frame4_bit5\.Q
*708 Tile_X0Y0_W_TT_IF2_top\.Inst_W_TT_IF2_top_ConfigMem\.Inst_frame4_bit6\.Q
*709 Tile_X0Y0_W_TT_IF2_top\.Inst_W_TT_IF2_top_ConfigMem\.Inst_frame4_bit7\.Q
*710 Tile_X0Y0_W_TT_IF2_top\.Inst_W_TT_IF2_top_ConfigMem\.Inst_frame4_bit8\.Q
*711 Tile_X0Y0_W_TT_IF2_top\.Inst_W_TT_IF2_top_ConfigMem\.Inst_frame4_bit9\.Q
*712 Tile_X0Y0_W_TT_IF2_top\.Inst_W_TT_IF2_top_ConfigMem\.Inst_frame5_bit0\.Q
*713 Tile_X0Y0_W_TT_IF2_top\.Inst_W_TT_IF2_top_ConfigMem\.Inst_frame5_bit1\.Q
*714 Tile_X0Y0_W_TT_IF2_top\.Inst_W_TT_IF2_top_ConfigMem\.Inst_frame5_bit10\.Q
*715 Tile_X0Y0_W_TT_IF2_top\.Inst_W_TT_IF2_top_ConfigMem\.Inst_frame5_bit11\.Q
*716 Tile_X0Y0_W_TT_IF2_top\.Inst_W_TT_IF2_top_ConfigMem\.Inst_frame5_bit12\.Q
*717 Tile_X0Y0_W_TT_IF2_top\.Inst_W_TT_IF2_top_ConfigMem\.Inst_frame5_bit13\.Q
*718 Tile_X0Y0_W_TT_IF2_top\.Inst_W_TT_IF2_top_ConfigMem\.Inst_frame5_bit14\.Q
*719 Tile_X0Y0_W_TT_IF2_top\.Inst_W_TT_IF2_top_ConfigMem\.Inst_frame5_bit15\.Q
*720 Tile_X0Y0_W_TT_IF2_top\.Inst_W_TT_IF2_top_ConfigMem\.Inst_frame5_bit16\.Q
*721 Tile_X0Y0_W_TT_IF2_top\.Inst_W_TT_IF2_top_ConfigMem\.Inst_frame5_bit17\.Q
*722 Tile_X0Y0_W_TT_IF2_top\.Inst_W_TT_IF2_top_ConfigMem\.Inst_frame5_bit18\.Q
*723 Tile_X0Y0_W_TT_IF2_top\.Inst_W_TT_IF2_top_ConfigMem\.Inst_frame5_bit19\.Q
*724 Tile_X0Y0_W_TT_IF2_top\.Inst_W_TT_IF2_top_ConfigMem\.Inst_frame5_bit2\.Q
*725 Tile_X0Y0_W_TT_IF2_top\.Inst_W_TT_IF2_top_ConfigMem\.Inst_frame5_bit20\.Q
*726 Tile_X0Y0_W_TT_IF2_top\.Inst_W_TT_IF2_top_ConfigMem\.Inst_frame5_bit21\.Q
*727 Tile_X0Y0_W_TT_IF2_top\.Inst_W_TT_IF2_top_ConfigMem\.Inst_frame5_bit22\.Q
*728 Tile_X0Y0_W_TT_IF2_top\.Inst_W_TT_IF2_top_ConfigMem\.Inst_frame5_bit23\.Q
*729 Tile_X0Y0_W_TT_IF2_top\.Inst_W_TT_IF2_top_ConfigMem\.Inst_frame5_bit24\.Q
*730 Tile_X0Y0_W_TT_IF2_top\.Inst_W_TT_IF2_top_ConfigMem\.Inst_frame5_bit25\.Q
*731 Tile_X0Y0_W_TT_IF2_top\.Inst_W_TT_IF2_top_ConfigMem\.Inst_frame5_bit26\.Q
*732 Tile_X0Y0_W_TT_IF2_top\.Inst_W_TT_IF2_top_ConfigMem\.Inst_frame5_bit27\.Q
*733 Tile_X0Y0_W_TT_IF2_top\.Inst_W_TT_IF2_top_ConfigMem\.Inst_frame5_bit28\.Q
*734 Tile_X0Y0_W_TT_IF2_top\.Inst_W_TT_IF2_top_ConfigMem\.Inst_frame5_bit29\.Q
*735 Tile_X0Y0_W_TT_IF2_top\.Inst_W_TT_IF2_top_ConfigMem\.Inst_frame5_bit3\.Q
*736 Tile_X0Y0_W_TT_IF2_top\.Inst_W_TT_IF2_top_ConfigMem\.Inst_frame5_bit30\.Q
*737 Tile_X0Y0_W_TT_IF2_top\.Inst_W_TT_IF2_top_ConfigMem\.Inst_frame5_bit31\.Q
*738 Tile_X0Y0_W_TT_IF2_top\.Inst_W_TT_IF2_top_ConfigMem\.Inst_frame5_bit4\.Q
*739 Tile_X0Y0_W_TT_IF2_top\.Inst_W_TT_IF2_top_ConfigMem\.Inst_frame5_bit5\.Q
*740 Tile_X0Y0_W_TT_IF2_top\.Inst_W_TT_IF2_top_ConfigMem\.Inst_frame5_bit6\.Q
*741 Tile_X0Y0_W_TT_IF2_top\.Inst_W_TT_IF2_top_ConfigMem\.Inst_frame5_bit7\.Q
*742 Tile_X0Y0_W_TT_IF2_top\.Inst_W_TT_IF2_top_ConfigMem\.Inst_frame5_bit8\.Q
*743 Tile_X0Y0_W_TT_IF2_top\.Inst_W_TT_IF2_top_ConfigMem\.Inst_frame5_bit9\.Q
*744 Tile_X0Y0_W_TT_IF2_top\.Inst_W_TT_IF2_top_ConfigMem\.Inst_frame6_bit0\.Q
*745 Tile_X0Y0_W_TT_IF2_top\.Inst_W_TT_IF2_top_ConfigMem\.Inst_frame6_bit1\.Q
*746 Tile_X0Y0_W_TT_IF2_top\.Inst_W_TT_IF2_top_ConfigMem\.Inst_frame6_bit10\.Q
*747 Tile_X0Y0_W_TT_IF2_top\.Inst_W_TT_IF2_top_ConfigMem\.Inst_frame6_bit11\.Q