*SPEF "ieee 1481-1999"
*DESIGN "heichips25_example_small"
*DATE "22:38:48 Thursday July 24, 2025"
*VENDOR "The OpenROAD Project"
*PROGRAM "OpenROAD"
*VERSION "341650e72dad0dc8571822ff8c5d9c5e365327f7"
*DESIGN_FLOW "NAME_SCOPE LOCAL" "PIN_CAP NONE"
*DIVIDER /
*DELIMITER :
*BUS_DELIMITER []
*T_UNIT 1 NS
*C_UNIT 1 PF
*R_UNIT 1 OHM
*L_UNIT 1 HENRY

*NAME_MAP
*3 clk
*4 ena
*5 rst_n
*6 ui_in[0]
*7 ui_in[1]
*8 ui_in[2]
*9 ui_in[3]
*10 ui_in[4]
*11 ui_in[5]
*12 ui_in[6]
*13 ui_in[7]
*14 uio_in[0]
*15 uio_in[1]
*16 uio_in[2]
*17 uio_in[3]
*18 uio_in[4]
*19 uio_in[5]
*20 uio_in[6]
*21 uio_in[7]
*22 net25
*23 net26
*24 net27
*25 net28
*26 net29
*27 net30
*28 net31
*29 net32
*30 net33
*31 net34
*32 net35
*33 net36
*34 net37
*35 net38
*36 net39
*37 net40
*38 uo_out[0]
*39 uo_out[1]
*40 uo_out[2]
*41 uo_out[3]
*42 uo_out[4]
*43 uo_out[5]
*44 uo_out[6]
*45 uo_out[7]
*46 _00_
*47 _01_
*48 _02_
*49 _03_
*50 _04_
*51 _05_
*52 _06_
*53 _07_
*54 _08_
*55 _09_
*56 _10_
*57 _11_
*58 _12_
*59 _13_
*60 _14_
*61 _15_
*62 _16_
*63 _17_
*64 _18_
*65 _19_
*66 _20_
*67 _21_
*68 _22_
*69 _23_
*70 _24_
*71 _25_
*72 _26_
*73 _27_
*74 _28_
*75 net1
*76 net10
*77 net11
*78 net12
*79 net13
*80 net14
*81 net15
*82 net16
*83 net17
*84 net18
*85 net19
*86 net2
*87 net20
*88 net21
*89 net22
*90 net23
*91 net24
*92 net3
*93 net4
*94 net5
*95 net6
*96 net7
*97 net8
*98 net9
*99 FILLER_0_0
*100 FILLER_0_105
*101 FILLER_0_112
*102 FILLER_0_119
*103 FILLER_0_126
*104 FILLER_0_133
*105 FILLER_0_14
*106 FILLER_0_140
*107 FILLER_0_147
*108 FILLER_0_154
*109 FILLER_0_161
*110 FILLER_0_168
*111 FILLER_0_175
*112 FILLER_0_182
*113 FILLER_0_189
*114 FILLER_0_196
*115 FILLER_0_203
*116 FILLER_0_21
*117 FILLER_0_210
*118 FILLER_0_217
*119 FILLER_0_224
*120 FILLER_0_231
*121 FILLER_0_238
*122 FILLER_0_245
*123 FILLER_0_252
*124 FILLER_0_259
*125 FILLER_0_266
*126 FILLER_0_273
*127 FILLER_0_28
*128 FILLER_0_280
*129 FILLER_0_287
*130 FILLER_0_294
*131 FILLER_0_301
*132 FILLER_0_308
*133 FILLER_0_315
*134 FILLER_0_322
*135 FILLER_0_329
*136 FILLER_0_336
*137 FILLER_0_343
*138 FILLER_0_35
*139 FILLER_0_350
*140 FILLER_0_357
*141 FILLER_0_364
*142 FILLER_0_371
*143 FILLER_0_378
*144 FILLER_0_385
*145 FILLER_0_392
*146 FILLER_0_399
*147 FILLER_0_406
*148 FILLER_0_413
*149 FILLER_0_42
*150 FILLER_0_420
*151 FILLER_0_427
*152 FILLER_0_434
*153 FILLER_0_441
*154 FILLER_0_448
*155 FILLER_0_455
*156 FILLER_0_462
*157 FILLER_0_469
*158 FILLER_0_476
*159 FILLER_0_483
*160 FILLER_0_49
*161 FILLER_0_490
*162 FILLER_0_497
*163 FILLER_0_504
*164 FILLER_0_511
*165 FILLER_0_518
*166 FILLER_0_525
*167 FILLER_0_532
*168 FILLER_0_539
*169 FILLER_0_546
*170 FILLER_0_553
*171 FILLER_0_56
*172 FILLER_0_560
*173 FILLER_0_567
*174 FILLER_0_574
*175 FILLER_0_581
*176 FILLER_0_588
*177 FILLER_0_595
*178 FILLER_0_602
*179 FILLER_0_609
*180 FILLER_0_616
*181 FILLER_0_623
*182 FILLER_0_63
*183 FILLER_0_630
*184 FILLER_0_637
*185 FILLER_0_644
*186 FILLER_0_651
*187 FILLER_0_658
*188 FILLER_0_665
*189 FILLER_0_672
*190 FILLER_0_679
*191 FILLER_0_686
*192 FILLER_0_693
*193 FILLER_0_7
*194 FILLER_0_70
*195 FILLER_0_700
*196 FILLER_0_707
*197 FILLER_0_714
*198 FILLER_0_721
*199 FILLER_0_728
*200 FILLER_0_735
*201 FILLER_0_742
*202 FILLER_0_749
*203 FILLER_0_756
*204 FILLER_0_763
*205 FILLER_0_77
*206 FILLER_0_770
*207 FILLER_0_777
*208 FILLER_0_784
*209 FILLER_0_791
*210 FILLER_0_798
*211 FILLER_0_805
*212 FILLER_0_812
*213 FILLER_0_819
*214 FILLER_0_826
*215 FILLER_0_833
*216 FILLER_0_84
*217 FILLER_0_840
*218 FILLER_0_847
*219 FILLER_0_854
*220 FILLER_0_861
*221 FILLER_0_868
*222 FILLER_0_875
*223 FILLER_0_882
*224 FILLER_0_889
*225 FILLER_0_896
*226 FILLER_0_903
*227 FILLER_0_91
*228 FILLER_0_910
*229 FILLER_0_917
*230 FILLER_0_924
*231 FILLER_0_98
*232 FILLER_10_102
*233 FILLER_10_109
*234 FILLER_10_11
*235 FILLER_10_116
*236 FILLER_10_123
*237 FILLER_10_130
*238 FILLER_10_137
*239 FILLER_10_144
*240 FILLER_10_151
*241 FILLER_10_158
*242 FILLER_10_165
*243 FILLER_10_172
*244 FILLER_10_179
*245 FILLER_10_18
*246 FILLER_10_186
*247 FILLER_10_193
*248 FILLER_10_200
*249 FILLER_10_207
*250 FILLER_10_214
*251 FILLER_10_221
*252 FILLER_10_228
*253 FILLER_10_235
*254 FILLER_10_242
*255 FILLER_10_249
*256 FILLER_10_25
*257 FILLER_10_256
*258 FILLER_10_263
*259 FILLER_10_270
*260 FILLER_10_277
*261 FILLER_10_284
*262 FILLER_10_291
*263 FILLER_10_298
*264 FILLER_10_305
*265 FILLER_10_312
*266 FILLER_10_319
*267 FILLER_10_32
*268 FILLER_10_326
*269 FILLER_10_333
*270 FILLER_10_340
*271 FILLER_10_347
*272 FILLER_10_354
*273 FILLER_10_361
*274 FILLER_10_368
*275 FILLER_10_375
*276 FILLER_10_382
*277 FILLER_10_389
*278 FILLER_10_39
*279 FILLER_10_396
*280 FILLER_10_4
*281 FILLER_10_403
*282 FILLER_10_410
*283 FILLER_10_417
*284 FILLER_10_424
*285 FILLER_10_431
*286 FILLER_10_438
*287 FILLER_10_445
*288 FILLER_10_452
*289 FILLER_10_459
*290 FILLER_10_46
*291 FILLER_10_466
*292 FILLER_10_473
*293 FILLER_10_480
*294 FILLER_10_487
*295 FILLER_10_494
*296 FILLER_10_501
*297 FILLER_10_508
*298 FILLER_10_515
*299 FILLER_10_522
*300 FILLER_10_529
*301 FILLER_10_53
*302 FILLER_10_536
*303 FILLER_10_543
*304 FILLER_10_550
*305 FILLER_10_557
*306 FILLER_10_564
*307 FILLER_10_571
*308 FILLER_10_578
*309 FILLER_10_585
*310 FILLER_10_592
*311 FILLER_10_599
*312 FILLER_10_60
*313 FILLER_10_606
*314 FILLER_10_613
*315 FILLER_10_620
*316 FILLER_10_627
*317 FILLER_10_634
*318 FILLER_10_641
*319 FILLER_10_648
*320 FILLER_10_655
*321 FILLER_10_662
*322 FILLER_10_669
*323 FILLER_10_67
*324 FILLER_10_676
*325 FILLER_10_683
*326 FILLER_10_690
*327 FILLER_10_697
*328 FILLER_10_704
*329 FILLER_10_711
*330 FILLER_10_718
*331 FILLER_10_725
*332 FILLER_10_732
*333 FILLER_10_739
*334 FILLER_10_74
*335 FILLER_10_746
*336 FILLER_10_753
*337 FILLER_10_760
*338 FILLER_10_767
*339 FILLER_10_774
*340 FILLER_10_781
*341 FILLER_10_788
*342 FILLER_10_795
*343 FILLER_10_802
*344 FILLER_10_809
*345 FILLER_10_81
*346 FILLER_10_816
*347 FILLER_10_823
*348 FILLER_10_830
*349 FILLER_10_837
*350 FILLER_10_844
*351 FILLER_10_851
*352 FILLER_10_858
*353 FILLER_10_865
*354 FILLER_10_872
*355 FILLER_10_879
*356 FILLER_10_88
*357 FILLER_10_886
*358 FILLER_10_893
*359 FILLER_10_900
*360 FILLER_10_907
*361 FILLER_10_914
*362 FILLER_10_921
*363 FILLER_10_95
*364 FILLER_11_102
*365 FILLER_11_109
*366 FILLER_11_11
*367 FILLER_11_116
*368 FILLER_11_123
*369 FILLER_11_130
*370 FILLER_11_137
*371 FILLER_11_144
*372 FILLER_11_151
*373 FILLER_11_158
*374 FILLER_11_165
*375 FILLER_11_172
*376 FILLER_11_179
*377 FILLER_11_18
*378 FILLER_11_186
*379 FILLER_11_193
*380 FILLER_11_200
*381 FILLER_11_207
*382 FILLER_11_214
*383 FILLER_11_221
*384 FILLER_11_228
*385 FILLER_11_235
*386 FILLER_11_242
*387 FILLER_11_249
*388 FILLER_11_25
*389 FILLER_11_256
*390 FILLER_11_263
*391 FILLER_11_270
*392 FILLER_11_277
*393 FILLER_11_284
*394 FILLER_11_291
*395 FILLER_11_298
*396 FILLER_11_305
*397 FILLER_11_312
*398 FILLER_11_319
*399 FILLER_11_32
*400 FILLER_11_326
*401 FILLER_11_333
*402 FILLER_11_340
*403 FILLER_11_347
*404 FILLER_11_354
*405 FILLER_11_361
*406 FILLER_11_368
*407 FILLER_11_375
*408 FILLER_11_382
*409 FILLER_11_389
*410 FILLER_11_39
*411 FILLER_11_396
*412 FILLER_11_4
*413 FILLER_11_403
*414 FILLER_11_410
*415 FILLER_11_417
*416 FILLER_11_424
*417 FILLER_11_431
*418 FILLER_11_438
*419 FILLER_11_445
*420 FILLER_11_452
*421 FILLER_11_459
*422 FILLER_11_46
*423 FILLER_11_466
*424 FILLER_11_473
*425 FILLER_11_480
*426 FILLER_11_487
*427 FILLER_11_494
*428 FILLER_11_501
*429 FILLER_11_508
*430 FILLER_11_515
*431 FILLER_11_522
*432 FILLER_11_529
*433 FILLER_11_53
*434 FILLER_11_536
*435 FILLER_11_543
*436 FILLER_11_550
*437 FILLER_11_557
*438 FILLER_11_564
*439 FILLER_11_571
*440 FILLER_11_578
*441 FILLER_11_585
*442 FILLER_11_592
*443 FILLER_11_599
*444 FILLER_11_60
*445 FILLER_11_606
*446 FILLER_11_613
*447 FILLER_11_620
*448 FILLER_11_627
*449 FILLER_11_634
*450 FILLER_11_641
*451 FILLER_11_648
*452 FILLER_11_655
*453 FILLER_11_662
*454 FILLER_11_669
*455 FILLER_11_67
*456 FILLER_11_676
*457 FILLER_11_683
*458 FILLER_11_690
*459 FILLER_11_697
*460 FILLER_11_704
*461 FILLER_11_711
*462 FILLER_11_718
*463 FILLER_11_725
*464 FILLER_11_732
*465 FILLER_11_739
*466 FILLER_11_74
*467 FILLER_11_746
*468 FILLER_11_753
*469 FILLER_11_760
*470 FILLER_11_767
*471 FILLER_11_774
*472 FILLER_11_781
*473 FILLER_11_788
*474 FILLER_11_795
*475 FILLER_11_802
*476 FILLER_11_809
*477 FILLER_11_81
*478 FILLER_11_816
*479 FILLER_11_823
*480 FILLER_11_830
*481 FILLER_11_837
*482 FILLER_11_844
*483 FILLER_11_851
*484 FILLER_11_858
*485 FILLER_11_865
*486 FILLER_11_872
*487 FILLER_11_879
*488 FILLER_11_88
*489 FILLER_11_886
*490 FILLER_11_893
*491 FILLER_11_900
*492 FILLER_11_907
*493 FILLER_11_914
*494 FILLER_11_921
*495 FILLER_11_95
*496 FILLER_12_102
*497 FILLER_12_109
*498 FILLER_12_11
*499 FILLER_12_116
*500 FILLER_12_123
*501 FILLER_12_130
*502 FILLER_12_137
*503 FILLER_12_144
*504 FILLER_12_151
*505 FILLER_12_158
*506 FILLER_12_165
*507 FILLER_12_172
*508 FILLER_12_179
*509 FILLER_12_18
*510 FILLER_12_186
*511 FILLER_12_193
*512 FILLER_12_200
*513 FILLER_12_207
*514 FILLER_12_214
*515 FILLER_12_221
*516 FILLER_12_228
*517 FILLER_12_235
*518 FILLER_12_242
*519 FILLER_12_249
*520 FILLER_12_25
*521 FILLER_12_256
*522 FILLER_12_263
*523 FILLER_12_270
*524 FILLER_12_277
*525 FILLER_12_284
*526 FILLER_12_291
*527 FILLER_12_298
*528 FILLER_12_305
*529 FILLER_12_312
*530 FILLER_12_319
*531 FILLER_12_32
*532 FILLER_12_326
*533 FILLER_12_333
*534 FILLER_12_340
*535 FILLER_12_347
*536 FILLER_12_354
*537 FILLER_12_361
*538 FILLER_12_368
*539 FILLER_12_375
*540 FILLER_12_382
*541 FILLER_12_389
*542 FILLER_12_39
*543 FILLER_12_396
*544 FILLER_12_4
*545 FILLER_12_403
*546 FILLER_12_410
*547 FILLER_12_417
*548 FILLER_12_424
*549 FILLER_12_431
*550 FILLER_12_438
*551 FILLER_12_445
*552 FILLER_12_452
*553 FILLER_12_459
*554 FILLER_12_46
*555 FILLER_12_466
*556 FILLER_12_473
*557 FILLER_12_480
*558 FILLER_12_487
*559 FILLER_12_494
*560 FILLER_12_501
*561 FILLER_12_508
*562 FILLER_12_515
*563 FILLER_12_522
*564 FILLER_12_529
*565 FILLER_12_53
*566 FILLER_12_536
*567 FILLER_12_543
*568 FILLER_12_550
*569 FILLER_12_557
*570 FILLER_12_564
*571 FILLER_12_571
*572 FILLER_12_578
*573 FILLER_12_585
*574 FILLER_12_592
*575 FILLER_12_599
*576 FILLER_12_60
*577 FILLER_12_606
*578 FILLER_12_613
*579 FILLER_12_620
*580 FILLER_12_627
*581 FILLER_12_634
*582 FILLER_12_641
*583 FILLER_12_648
*584 FILLER_12_655
*585 FILLER_12_662
*586 FILLER_12_669
*587 FILLER_12_67
*588 FILLER_12_676
*589 FILLER_12_683
*590 FILLER_12_690
*591 FILLER_12_697
*592 FILLER_12_704
*593 FILLER_12_711
*594 FILLER_12_718
*595 FILLER_12_725
*596 FILLER_12_732
*597 FILLER_12_739
*598 FILLER_12_74
*599 FILLER_12_746
*600 FILLER_12_753
*601 FILLER_12_760
*602 FILLER_12_767
*603 FILLER_12_774
*604 FILLER_12_781
*605 FILLER_12_788
*606 FILLER_12_795
*607 FILLER_12_802
*608 FILLER_12_809
*609 FILLER_12_81
*610 FILLER_12_816
*611 FILLER_12_823
*612 FILLER_12_830
*613 FILLER_12_837
*614 FILLER_12_844
*615 FILLER_12_851
*616 FILLER_12_858
*617 FILLER_12_865
*618 FILLER_12_872
*619 FILLER_12_879
*620 FILLER_12_88
*621 FILLER_12_886
*622 FILLER_12_893
*623 FILLER_12_900
*624 FILLER_12_907
*625 FILLER_12_914
*626 FILLER_12_921
*627 FILLER_12_95
*628 FILLER_13_102
*629 FILLER_13_109
*630 FILLER_13_11
*631 FILLER_13_116
*632 FILLER_13_123
*633 FILLER_13_130
*634 FILLER_13_137
*635 FILLER_13_144
*636 FILLER_13_151
*637 FILLER_13_158
*638 FILLER_13_165
*639 FILLER_13_172
*640 FILLER_13_179
*641 FILLER_13_18
*642 FILLER_13_186
*643 FILLER_13_193
*644 FILLER_13_200
*645 FILLER_13_207
*646 FILLER_13_214
*647 FILLER_13_221
*648 FILLER_13_228
*649 FILLER_13_235
*650 FILLER_13_242
*651 FILLER_13_249
*652 FILLER_13_25
*653 FILLER_13_256
*654 FILLER_13_263
*655 FILLER_13_270
*656 FILLER_13_277
*657 FILLER_13_284
*658 FILLER_13_291
*659 FILLER_13_298
*660 FILLER_13_305
*661 FILLER_13_312
*662 FILLER_13_319
*663 FILLER_13_32
*664 FILLER_13_326
*665 FILLER_13_333
*666 FILLER_13_340
*667 FILLER_13_347
*668 FILLER_13_354
*669 FILLER_13_361
*670 FILLER_13_368
*671 FILLER_13_375
*672 FILLER_13_382
*673 FILLER_13_389
*674 FILLER_13_39
*675 FILLER_13_396
*676 FILLER_13_4
*677 FILLER_13_403
*678 FILLER_13_410
*679 FILLER_13_417
*680 FILLER_13_424
*681 FILLER_13_431
*682 FILLER_13_438
*683 FILLER_13_445
*684 FILLER_13_452
*685 FILLER_13_459
*686 FILLER_13_46
*687 FILLER_13_466
*688 FILLER_13_473
*689 FILLER_13_480
*690 FILLER_13_487
*691 FILLER_13_494
*692 FILLER_13_501
*693 FILLER_13_508
*694 FILLER_13_515
*695 FILLER_13_522
*696 FILLER_13_529
*697 FILLER_13_53
*698 FILLER_13_536
*699 FILLER_13_543
*700 FILLER_13_550
*701 FILLER_13_557
*702 FILLER_13_564
*703 FILLER_13_571
*704 FILLER_13_578
*705 FILLER_13_585
*706 FILLER_13_592
*707 FILLER_13_599
*708 FILLER_13_60
*709 FILLER_13_606
*710 FILLER_13_613
*711 FILLER_13_620
*712 FILLER_13_627
*713 FILLER_13_634
*714 FILLER_13_641
*715 FILLER_13_648
*716 FILLER_13_655
*717 FILLER_13_662
*718 FILLER_13_669
*719 FILLER_13_67
*720 FILLER_13_676
*721 FILLER_13_683
*722 FILLER_13_690
*723 FILLER_13_697
*724 FILLER_13_704
*725 FILLER_13_711
*726 FILLER_13_718
*727 FILLER_13_725
*728 FILLER_13_732
*729 FILLER_13_739
*730 FILLER_13_74
*731 FILLER_13_746
*732 FILLER_13_753
*733 FILLER_13_760
*734 FILLER_13_767
*735 FILLER_13_774
*736 FILLER_13_781
*737 FILLER_13_788
*738 FILLER_13_795
*739 FILLER_13_802
*740 FILLER_13_809
*741 FILLER_13_81
*742 FILLER_13_816
*743 FILLER_13_823
*744 FILLER_13_830
*745 FILLER_13_837
*746 FILLER_13_844
*747 FILLER_13_851
*748 FILLER_13_858
*749 FILLER_13_865
*750 FILLER_13_872
*751 FILLER_13_879
*752 FILLER_13_88
*753 FILLER_13_886
*754 FILLER_13_893
*755 FILLER_13_900
*756 FILLER_13_907
*757 FILLER_13_914
*758 FILLER_13_921
*759 FILLER_13_95
*760 FILLER_14_102
*761 FILLER_14_109
*762 FILLER_14_11
*763 FILLER_14_116
*764 FILLER_14_123
*765 FILLER_14_130
*766 FILLER_14_137
*767 FILLER_14_144
*768 FILLER_14_151
*769 FILLER_14_158
*770 FILLER_14_165
*771 FILLER_14_172
*772 FILLER_14_179
*773 FILLER_14_18
*774 FILLER_14_186
*775 FILLER_14_193
*776 FILLER_14_200
*777 FILLER_14_207
*778 FILLER_14_214
*779 FILLER_14_221
*780 FILLER_14_228
*781 FILLER_14_235
*782 FILLER_14_242
*783 FILLER_14_249
*784 FILLER_14_25
*785 FILLER_14_256
*786 FILLER_14_263
*787 FILLER_14_270
*788 FILLER_14_277
*789 FILLER_14_284
*790 FILLER_14_291
*791 FILLER_14_298
*792 FILLER_14_305
*793 FILLER_14_312
*794 FILLER_14_319
*795 FILLER_14_32
*796 FILLER_14_326
*797 FILLER_14_333
*798 FILLER_14_340
*799 FILLER_14_347
*800 FILLER_14_354
*801 FILLER_14_361
*802 FILLER_14_368
*803 FILLER_14_375
*804 FILLER_14_382
*805 FILLER_14_389
*806 FILLER_14_39
*807 FILLER_14_396
*808 FILLER_14_4
*809 FILLER_14_403
*810 FILLER_14_410
*811 FILLER_14_417
*812 FILLER_14_424
*813 FILLER_14_431
*814 FILLER_14_438
*815 FILLER_14_445
*816 FILLER_14_452
*817 FILLER_14_459
*818 FILLER_14_46
*819 FILLER_14_466
*820 FILLER_14_473
*821 FILLER_14_480
*822 FILLER_14_487
*823 FILLER_14_494
*824 FILLER_14_501
*825 FILLER_14_508
*826 FILLER_14_515
*827 FILLER_14_522
*828 FILLER_14_529
*829 FILLER_14_53
*830 FILLER_14_536
*831 FILLER_14_543
*832 FILLER_14_550
*833 FILLER_14_557
*834 FILLER_14_564
*835 FILLER_14_571
*836 FILLER_14_578
*837 FILLER_14_585
*838 FILLER_14_592
*839 FILLER_14_599
*840 FILLER_14_60
*841 FILLER_14_606
*842 FILLER_14_613
*843 FILLER_14_620
*844 FILLER_14_627
*845 FILLER_14_634
*846 FILLER_14_641
*847 FILLER_14_648
*848 FILLER_14_655
*849 FILLER_14_662
*850 FILLER_14_669
*851 FILLER_14_67
*852 FILLER_14_676
*853 FILLER_14_683
*854 FILLER_14_690
*855 FILLER_14_697
*856 FILLER_14_704
*857 FILLER_14_711
*858 FILLER_14_718
*859 FILLER_14_725
*860 FILLER_14_732
*861 FILLER_14_739
*862 FILLER_14_74
*863 FILLER_14_746
*864 FILLER_14_753
*865 FILLER_14_760
*866 FILLER_14_767
*867 FILLER_14_774
*868 FILLER_14_781
*869 FILLER_14_788
*870 FILLER_14_795
*871 FILLER_14_802
*872 FILLER_14_809
*873 FILLER_14_81
*874 FILLER_14_816
*875 FILLER_14_823
*876 FILLER_14_830
*877 FILLER_14_837
*878 FILLER_14_844
*879 FILLER_14_851
*880 FILLER_14_858
*881 FILLER_14_865
*882 FILLER_14_872
*883 FILLER_14_879
*884 FILLER_14_88
*885 FILLER_14_886
*886 FILLER_14_893
*887 FILLER_14_900
*888 FILLER_14_907
*889 FILLER_14_914
*890 FILLER_14_921
*891 FILLER_14_95
*892 FILLER_15_102
*893 FILLER_15_109
*894 FILLER_15_11
*895 FILLER_15_116
*896 FILLER_15_123
*897 FILLER_15_130
*898 FILLER_15_137
*899 FILLER_15_144
*900 FILLER_15_151
*901 FILLER_15_158
*902 FILLER_15_165
*903 FILLER_15_172
*904 FILLER_15_179
*905 FILLER_15_18
*906 FILLER_15_186
*907 FILLER_15_193
*908 FILLER_15_200
*909 FILLER_15_207
*910 FILLER_15_214
*911 FILLER_15_221
*912 FILLER_15_228
*913 FILLER_15_235
*914 FILLER_15_242
*915 FILLER_15_249
*916 FILLER_15_25
*917 FILLER_15_256
*918 FILLER_15_263
*919 FILLER_15_270
*920 FILLER_15_277
*921 FILLER_15_284
*922 FILLER_15_291
*923 FILLER_15_298
*924 FILLER_15_305
*925 FILLER_15_312
*926 FILLER_15_319
*927 FILLER_15_32
*928 FILLER_15_326
*929 FILLER_15_333
*930 FILLER_15_340
*931 FILLER_15_347
*932 FILLER_15_354
*933 FILLER_15_361
*934 FILLER_15_368
*935 FILLER_15_375
*936 FILLER_15_382
*937 FILLER_15_389
*938 FILLER_15_39
*939 FILLER_15_396
*940 FILLER_15_4
*941 FILLER_15_403
*942 FILLER_15_410
*943 FILLER_15_417
*944 FILLER_15_424
*945 FILLER_15_431
*946 FILLER_15_438
*947 FILLER_15_445
*948 FILLER_15_452
*949 FILLER_15_459
*950 FILLER_15_46
*951 FILLER_15_466
*952 FILLER_15_473
*953 FILLER_15_480
*954 FILLER_15_487
*955 FILLER_15_494
*956 FILLER_15_501
*957 FILLER_15_508
*958 FILLER_15_515
*959 FILLER_15_522
*960 FILLER_15_529
*961 FILLER_15_53
*962 FILLER_15_536
*963 FILLER_15_543
*964 FILLER_15_550
*965 FILLER_15_557
*966 FILLER_15_564
*967 FILLER_15_571
*968 FILLER_15_578
*969 FILLER_15_585
*970 FILLER_15_592
*971 FILLER_15_599
*972 FILLER_15_60
*973 FILLER_15_606
*974 FILLER_15_613
*975 FILLER_15_620
*976 FILLER_15_627
*977 FILLER_15_634
*978 FILLER_15_641
*979 FILLER_15_648
*980 FILLER_15_655
*981 FILLER_15_662
*982 FILLER_15_669
*983 FILLER_15_67
*984 FILLER_15_676
*985 FILLER_15_683
*986 FILLER_15_690
*987 FILLER_15_697
*988 FILLER_15_704
*989 FILLER_15_711
*990 FILLER_15_718
*991 FILLER_15_725
*992 FILLER_15_732
*993 FILLER_15_739
*994 FILLER_15_74
*995 FILLER_15_746
*996 FILLER_15_753
*997 FILLER_15_760
*998 FILLER_15_767
*999 FILLER_15_774
*1000 FILLER_15_781
*1001 FILLER_15_788
*1002 FILLER_15_795
*1003 FILLER_15_802
*1004 FILLER_15_809
*1005 FILLER_15_81
*1006 FILLER_15_816
*1007 FILLER_15_823
*1008 FILLER_15_830
*1009 FILLER_15_837
*1010 FILLER_15_844
*1011 FILLER_15_851
*1012 FILLER_15_858
*1013 FILLER_15_865
*1014 FILLER_15_872
*1015 FILLER_15_879
*1016 FILLER_15_88
*1017 FILLER_15_886
*1018 FILLER_15_893
*1019 FILLER_15_900
*1020 FILLER_15_907
*1021 FILLER_15_914
*1022 FILLER_15_921
*1023 FILLER_15_95
*1024 FILLER_16_102
*1025 FILLER_16_109
*1026 FILLER_16_11
*1027 FILLER_16_116
*1028 FILLER_16_123
*1029 FILLER_16_130
*1030 FILLER_16_137
*1031 FILLER_16_144
*1032 FILLER_16_151
*1033 FILLER_16_158
*1034 FILLER_16_165
*1035 FILLER_16_172
*1036 FILLER_16_179
*1037 FILLER_16_18
*1038 FILLER_16_186
*1039 FILLER_16_193
*1040 FILLER_16_200
*1041 FILLER_16_207
*1042 FILLER_16_214
*1043 FILLER_16_221
*1044 FILLER_16_228
*1045 FILLER_16_235
*1046 FILLER_16_242
*1047 FILLER_16_249
*1048 FILLER_16_25
*1049 FILLER_16_256
*1050 FILLER_16_263
*1051 FILLER_16_270
*1052 FILLER_16_277
*1053 FILLER_16_284
*1054 FILLER_16_291
*1055 FILLER_16_298
*1056 FILLER_16_305
*1057 FILLER_16_312
*1058 FILLER_16_319
*1059 FILLER_16_32
*1060 FILLER_16_326
*1061 FILLER_16_333
*1062 FILLER_16_340
*1063 FILLER_16_347
*1064 FILLER_16_354
*1065 FILLER_16_361
*1066 FILLER_16_368
*1067 FILLER_16_375
*1068 FILLER_16_382
*1069 FILLER_16_389
*1070 FILLER_16_39
*1071 FILLER_16_396
*1072 FILLER_16_4
*1073 FILLER_16_403
*1074 FILLER_16_410
*1075 FILLER_16_417
*1076 FILLER_16_424
*1077 FILLER_16_431
*1078 FILLER_16_438
*1079 FILLER_16_445
*1080 FILLER_16_452
*1081 FILLER_16_459
*1082 FILLER_16_46
*1083 FILLER_16_466
*1084 FILLER_16_473
*1085 FILLER_16_480
*1086 FILLER_16_487
*1087 FILLER_16_494
*1088 FILLER_16_501
*1089 FILLER_16_508
*1090 FILLER_16_515
*1091 FILLER_16_522
*1092 FILLER_16_529
*1093 FILLER_16_53
*1094 FILLER_16_536
*1095 FILLER_16_543
*1096 FILLER_16_550
*1097 FILLER_16_557
*1098 FILLER_16_564
*1099 FILLER_16_571
*1100 FILLER_16_578
*1101 FILLER_16_585
*1102 FILLER_16_592
*1103 FILLER_16_599
*1104 FILLER_16_60
*1105 FILLER_16_606
*1106 FILLER_16_613
*1107 FILLER_16_620
*1108 FILLER_16_627
*1109 FILLER_16_634
*1110 FILLER_16_641
*1111 FILLER_16_648
*1112 FILLER_16_655
*1113 FILLER_16_662
*1114 FILLER_16_669
*1115 FILLER_16_67
*1116 FILLER_16_676
*1117 FILLER_16_683
*1118 FILLER_16_690
*1119 FILLER_16_697
*1120 FILLER_16_704
*1121 FILLER_16_711
*1122 FILLER_16_718
*1123 FILLER_16_725
*1124 FILLER_16_732
*1125 FILLER_16_739
*1126 FILLER_16_74
*1127 FILLER_16_746
*1128 FILLER_16_753
*1129 FILLER_16_760
*1130 FILLER_16_767
*1131 FILLER_16_774
*1132 FILLER_16_781
*1133 FILLER_16_788
*1134 FILLER_16_795
*1135 FILLER_16_802
*1136 FILLER_16_809
*1137 FILLER_16_81
*1138 FILLER_16_816
*1139 FILLER_16_823
*1140 FILLER_16_830
*1141 FILLER_16_837
*1142 FILLER_16_844
*1143 FILLER_16_851
*1144 FILLER_16_858
*1145 FILLER_16_865
*1146 FILLER_16_872
*1147 FILLER_16_879
*1148 FILLER_16_88
*1149 FILLER_16_886
*1150 FILLER_16_893
*1151 FILLER_16_900
*1152 FILLER_16_907
*1153 FILLER_16_914
*1154 FILLER_16_921
*1155 FILLER_16_95
*1156 FILLER_17_0
*1157 FILLER_17_105
*1158 FILLER_17_112
*1159 FILLER_17_119
*1160 FILLER_17_126
*1161 FILLER_17_133
*1162 FILLER_17_14
*1163 FILLER_17_140
*1164 FILLER_17_147
*1165 FILLER_17_154
*1166 FILLER_17_161
*1167 FILLER_17_168
*1168 FILLER_17_175
*1169 FILLER_17_182
*1170 FILLER_17_189
*1171 FILLER_17_196
*1172 FILLER_17_203
*1173 FILLER_17_21
*1174 FILLER_17_210
*1175 FILLER_17_217
*1176 FILLER_17_224
*1177 FILLER_17_231
*1178 FILLER_17_238
*1179 FILLER_17_245
*1180 FILLER_17_252
*1181 FILLER_17_259
*1182 FILLER_17_266
*1183 FILLER_17_273
*1184 FILLER_17_28
*1185 FILLER_17_280
*1186 FILLER_17_287
*1187 FILLER_17_294
*1188 FILLER_17_301
*1189 FILLER_17_308
*1190 FILLER_17_315
*1191 FILLER_17_322
*1192 FILLER_17_329
*1193 FILLER_17_336
*1194 FILLER_17_343
*1195 FILLER_17_35
*1196 FILLER_17_350
*1197 FILLER_17_357
*1198 FILLER_17_364
*1199 FILLER_17_371
*1200 FILLER_17_378
*1201 FILLER_17_385
*1202 FILLER_17_392
*1203 FILLER_17_399
*1204 FILLER_17_406
*1205 FILLER_17_413
*1206 FILLER_17_42
*1207 FILLER_17_420
*1208 FILLER_17_427
*1209 FILLER_17_434
*1210 FILLER_17_441
*1211 FILLER_17_448
*1212 FILLER_17_455
*1213 FILLER_17_462
*1214 FILLER_17_469
*1215 FILLER_17_476
*1216 FILLER_17_483
*1217 FILLER_17_49
*1218 FILLER_17_490
*1219 FILLER_17_497
*1220 FILLER_17_504
*1221 FILLER_17_511
*1222 FILLER_17_518
*1223 FILLER_17_525
*1224 FILLER_17_532
*1225 FILLER_17_539
*1226 FILLER_17_546
*1227 FILLER_17_553
*1228 FILLER_17_56
*1229 FILLER_17_560
*1230 FILLER_17_567
*1231 FILLER_17_574
*1232 FILLER_17_581
*1233 FILLER_17_588
*1234 FILLER_17_595
*1235 FILLER_17_602
*1236 FILLER_17_609
*1237 FILLER_17_616
*1238 FILLER_17_623
*1239 FILLER_17_63
*1240 FILLER_17_630
*1241 FILLER_17_637
*1242 FILLER_17_644
*1243 FILLER_17_651
*1244 FILLER_17_658
*1245 FILLER_17_665
*1246 FILLER_17_672
*1247 FILLER_17_679
*1248 FILLER_17_686
*1249 FILLER_17_693
*1250 FILLER_17_7
*1251 FILLER_17_70
*1252 FILLER_17_700
*1253 FILLER_17_707
*1254 FILLER_17_714
*1255 FILLER_17_721
*1256 FILLER_17_728
*1257 FILLER_17_735
*1258 FILLER_17_742
*1259 FILLER_17_749
*1260 FILLER_17_756
*1261 FILLER_17_763
*1262 FILLER_17_77
*1263 FILLER_17_770
*1264 FILLER_17_777
*1265 FILLER_17_784
*1266 FILLER_17_791
*1267 FILLER_17_798
*1268 FILLER_17_805
*1269 FILLER_17_812
*1270 FILLER_17_819
*1271 FILLER_17_826
*1272 FILLER_17_833
*1273 FILLER_17_84
*1274 FILLER_17_840
*1275 FILLER_17_847
*1276 FILLER_17_854
*1277 FILLER_17_861
*1278 FILLER_17_868
*1279 FILLER_17_875
*1280 FILLER_17_882
*1281 FILLER_17_889
*1282 FILLER_17_896
*1283 FILLER_17_903
*1284 FILLER_17_91
*1285 FILLER_17_910
*1286 FILLER_17_917
*1287 FILLER_17_924
*1288 FILLER_17_98
*1289 FILLER_18_102
*1290 FILLER_18_109
*1291 FILLER_18_11
*1292 FILLER_18_116
*1293 FILLER_18_123
*1294 FILLER_18_130
*1295 FILLER_18_137
*1296 FILLER_18_144
*1297 FILLER_18_151
*1298 FILLER_18_158
*1299 FILLER_18_165
*1300 FILLER_18_172
*1301 FILLER_18_179
*1302 FILLER_18_18
*1303 FILLER_18_186
*1304 FILLER_18_193
*1305 FILLER_18_200
*1306 FILLER_18_207
*1307 FILLER_18_214
*1308 FILLER_18_221
*1309 FILLER_18_228
*1310 FILLER_18_235
*1311 FILLER_18_242
*1312 FILLER_18_249
*1313 FILLER_18_25
*1314 FILLER_18_256
*1315 FILLER_18_263
*1316 FILLER_18_270
*1317 FILLER_18_277
*1318 FILLER_18_284
*1319 FILLER_18_291
*1320 FILLER_18_298
*1321 FILLER_18_305
*1322 FILLER_18_312
*1323 FILLER_18_319
*1324 FILLER_18_32
*1325 FILLER_18_326
*1326 FILLER_18_333
*1327 FILLER_18_340
*1328 FILLER_18_347
*1329 FILLER_18_354
*1330 FILLER_18_361
*1331 FILLER_18_368
*1332 FILLER_18_375
*1333 FILLER_18_382
*1334 FILLER_18_389
*1335 FILLER_18_39
*1336 FILLER_18_396
*1337 FILLER_18_4
*1338 FILLER_18_403
*1339 FILLER_18_410
*1340 FILLER_18_417
*1341 FILLER_18_424
*1342 FILLER_18_431
*1343 FILLER_18_438
*1344 FILLER_18_445
*1345 FILLER_18_452
*1346 FILLER_18_459
*1347 FILLER_18_46
*1348 FILLER_18_466
*1349 FILLER_18_473
*1350 FILLER_18_480
*1351 FILLER_18_487
*1352 FILLER_18_494
*1353 FILLER_18_501
*1354 FILLER_18_508
*1355 FILLER_18_515
*1356 FILLER_18_522
*1357 FILLER_18_529
*1358 FILLER_18_53
*1359 FILLER_18_536
*1360 FILLER_18_543
*1361 FILLER_18_550
*1362 FILLER_18_557
*1363 FILLER_18_564
*1364 FILLER_18_571
*1365 FILLER_18_578
*1366 FILLER_18_585
*1367 FILLER_18_592
*1368 FILLER_18_599
*1369 FILLER_18_60
*1370 FILLER_18_606
*1371 FILLER_18_613
*1372 FILLER_18_620
*1373 FILLER_18_627
*1374 FILLER_18_634
*1375 FILLER_18_641
*1376 FILLER_18_648
*1377 FILLER_18_655
*1378 FILLER_18_662
*1379 FILLER_18_669
*1380 FILLER_18_67
*1381 FILLER_18_676
*1382 FILLER_18_683
*1383 FILLER_18_690
*1384 FILLER_18_697
*1385 FILLER_18_704
*1386 FILLER_18_711
*1387 FILLER_18_718
*1388 FILLER_18_725
*1389 FILLER_18_732
*1390 FILLER_18_739
*1391 FILLER_18_74
*1392 FILLER_18_746
*1393 FILLER_18_753
*1394 FILLER_18_760
*1395 FILLER_18_767
*1396 FILLER_18_774
*1397 FILLER_18_781
*1398 FILLER_18_788
*1399 FILLER_18_795
*1400 FILLER_18_802
*1401 FILLER_18_809
*1402 FILLER_18_81
*1403 FILLER_18_816
*1404 FILLER_18_823
*1405 FILLER_18_830
*1406 FILLER_18_837
*1407 FILLER_18_844
*1408 FILLER_18_851
*1409 FILLER_18_858
*1410 FILLER_18_865
*1411 FILLER_18_872
*1412 FILLER_18_879
*1413 FILLER_18_88
*1414 FILLER_18_886
*1415 FILLER_18_893
*1416 FILLER_18_900
*1417 FILLER_18_907
*1418 FILLER_18_914
*1419 FILLER_18_921
*1420 FILLER_18_95
*1421 FILLER_19_102
*1422 FILLER_19_109
*1423 FILLER_19_11
*1424 FILLER_19_116
*1425 FILLER_19_123
*1426 FILLER_19_130
*1427 FILLER_19_137
*1428 FILLER_19_144
*1429 FILLER_19_151
*1430 FILLER_19_158
*1431 FILLER_19_165
*1432 FILLER_19_172
*1433 FILLER_19_179
*1434 FILLER_19_18
*1435 FILLER_19_186
*1436 FILLER_19_193
*1437 FILLER_19_200
*1438 FILLER_19_207
*1439 FILLER_19_214
*1440 FILLER_19_221
*1441 FILLER_19_228
*1442 FILLER_19_235
*1443 FILLER_19_242
*1444 FILLER_19_249
*1445 FILLER_19_25
*1446 FILLER_19_256
*1447 FILLER_19_263
*1448 FILLER_19_270
*1449 FILLER_19_277
*1450 FILLER_19_284
*1451 FILLER_19_291
*1452 FILLER_19_298
*1453 FILLER_19_305
*1454 FILLER_19_312
*1455 FILLER_19_319
*1456 FILLER_19_32
*1457 FILLER_19_326
*1458 FILLER_19_333
*1459 FILLER_19_340
*1460 FILLER_19_347
*1461 FILLER_19_354
*1462 FILLER_19_361
*1463 FILLER_19_368
*1464 FILLER_19_375
*1465 FILLER_19_382
*1466 FILLER_19_389
*1467 FILLER_19_39
*1468 FILLER_19_396
*1469 FILLER_19_4
*1470 FILLER_19_403
*1471 FILLER_19_410
*1472 FILLER_19_417
*1473 FILLER_19_424
*1474 FILLER_19_431
*1475 FILLER_19_438
*1476 FILLER_19_445
*1477 FILLER_19_452
*1478 FILLER_19_459
*1479 FILLER_19_46
*1480 FILLER_19_466
*1481 FILLER_19_473
*1482 FILLER_19_480
*1483 FILLER_19_487
*1484 FILLER_19_494
*1485 FILLER_19_501
*1486 FILLER_19_508
*1487 FILLER_19_515
*1488 FILLER_19_522
*1489 FILLER_19_529
*1490 FILLER_19_53
*1491 FILLER_19_536
*1492 FILLER_19_543
*1493 FILLER_19_550
*1494 FILLER_19_557
*1495 FILLER_19_564
*1496 FILLER_19_571
*1497 FILLER_19_578
*1498 FILLER_19_585
*1499 FILLER_19_592
*1500 FILLER_19_599
*1501 FILLER_19_60
*1502 FILLER_19_606
*1503 FILLER_19_613
*1504 FILLER_19_620
*1505 FILLER_19_627
*1506 FILLER_19_634
*1507 FILLER_19_641
*1508 FILLER_19_648
*1509 FILLER_19_655
*1510 FILLER_19_662
*1511 FILLER_19_669
*1512 FILLER_19_67
*1513 FILLER_19_676
*1514 FILLER_19_683
*1515 FILLER_19_690
*1516 FILLER_19_697
*1517 FILLER_19_704
*1518 FILLER_19_711
*1519 FILLER_19_718
*1520 FILLER_19_725
*1521 FILLER_19_732
*1522 FILLER_19_739
*1523 FILLER_19_74
*1524 FILLER_19_746
*1525 FILLER_19_753
*1526 FILLER_19_760
*1527 FILLER_19_767
*1528 FILLER_19_774
*1529 FILLER_19_781
*1530 FILLER_19_788
*1531 FILLER_19_795
*1532 FILLER_19_802
*1533 FILLER_19_809
*1534 FILLER_19_81
*1535 FILLER_19_816
*1536 FILLER_19_823
*1537 FILLER_19_830
*1538 FILLER_19_837
*1539 FILLER_19_844
*1540 FILLER_19_851
*1541 FILLER_19_858
*1542 FILLER_19_865
*1543 FILLER_19_872
*1544 FILLER_19_879
*1545 FILLER_19_88
*1546 FILLER_19_886
*1547 FILLER_19_893
*1548 FILLER_19_900
*1549 FILLER_19_907
*1550 FILLER_19_914
*1551 FILLER_19_921
*1552 FILLER_19_95
*1553 FILLER_1_0
*1554 FILLER_1_105
*1555 FILLER_1_112
*1556 FILLER_1_119
*1557 FILLER_1_126
*1558 FILLER_1_133
*1559 FILLER_1_14
*1560 FILLER_1_140
*1561 FILLER_1_147
*1562 FILLER_1_154
*1563 FILLER_1_161
*1564 FILLER_1_168
*1565 FILLER_1_175
*1566 FILLER_1_182
*1567 FILLER_1_189
*1568 FILLER_1_196
*1569 FILLER_1_203
*1570 FILLER_1_21
*1571 FILLER_1_210
*1572 FILLER_1_217
*1573 FILLER_1_224
*1574 FILLER_1_231
*1575 FILLER_1_238
*1576 FILLER_1_245
*1577 FILLER_1_252
*1578 FILLER_1_259
*1579 FILLER_1_266
*1580 FILLER_1_273
*1581 FILLER_1_28
*1582 FILLER_1_280
*1583 FILLER_1_287
*1584 FILLER_1_294
*1585 FILLER_1_301
*1586 FILLER_1_308
*1587 FILLER_1_315
*1588 FILLER_1_322
*1589 FILLER_1_329
*1590 FILLER_1_336
*1591 FILLER_1_343
*1592 FILLER_1_35