*SPEF "ieee 1481-1999"
*DESIGN "S_IO4"
*DATE "11:42:39 Monday July 21, 2025"
*VENDOR "The OpenROAD Project"
*PROGRAM "OpenROAD"
*VERSION "341650e72dad0dc8571822ff8c5d9c5e365327f7"
*DESIGN_FLOW "NAME_SCOPE LOCAL" "PIN_CAP NONE"
*DIVIDER /
*DELIMITER :
*BUS_DELIMITER []
*T_UNIT 1 NS
*C_UNIT 1 PF
*R_UNIT 1 OHM
*L_UNIT 1 HENRY

*NAME_MAP
*1 A_I_top
*2 A_O_top
*3 A_T_top
*4 B_I_top
*5 B_O_top
*6 B_T_top
*7 C_I_top
*8 C_O_top
*9 C_T_top
*10 Co
*11 D_I_top
*12 D_O_top
*13 D_T_top
*14 FrameData[0]
*15 FrameData[10]
*16 FrameData[11]
*17 FrameData[12]
*18 FrameData[13]
*19 FrameData[14]
*20 FrameData[15]
*21 FrameData[16]
*22 FrameData[17]
*23 FrameData[18]
*24 FrameData[19]
*25 FrameData[1]
*26 FrameData[20]
*27 FrameData[21]
*28 FrameData[22]
*29 FrameData[23]
*30 FrameData[24]
*31 FrameData[25]
*32 FrameData[26]
*33 FrameData[27]
*34 FrameData[28]
*35 FrameData[29]
*36 FrameData[2]
*37 FrameData[30]
*38 FrameData[31]
*39 FrameData[3]
*40 FrameData[4]
*41 FrameData[5]
*42 FrameData[6]
*43 FrameData[7]
*44 FrameData[8]
*45 FrameData[9]
*46 FrameData_O[0]
*47 FrameData_O[10]
*48 FrameData_O[11]
*49 FrameData_O[12]
*50 FrameData_O[13]
*51 FrameData_O[14]
*52 FrameData_O[15]
*53 FrameData_O[16]
*54 FrameData_O[17]
*55 FrameData_O[18]
*56 FrameData_O[19]
*57 FrameData_O[1]
*58 FrameData_O[20]
*59 FrameData_O[21]
*60 FrameData_O[22]
*61 FrameData_O[23]
*62 FrameData_O[24]
*63 FrameData_O[25]
*64 FrameData_O[26]
*65 FrameData_O[27]
*66 FrameData_O[28]
*67 FrameData_O[29]
*68 FrameData_O[2]
*69 FrameData_O[30]
*70 FrameData_O[31]
*71 FrameData_O[3]
*72 FrameData_O[4]
*73 FrameData_O[5]
*74 FrameData_O[6]
*75 FrameData_O[7]
*76 FrameData_O[8]
*77 FrameData_O[9]
*78 FrameStrobe[0]
*79 FrameStrobe[10]
*80 FrameStrobe[11]
*81 FrameStrobe[12]
*82 FrameStrobe[13]
*83 FrameStrobe[14]
*84 FrameStrobe[15]
*85 FrameStrobe[16]
*86 FrameStrobe[17]
*87 FrameStrobe[18]
*88 FrameStrobe[19]
*89 FrameStrobe[1]
*90 FrameStrobe[2]
*91 FrameStrobe[3]
*92 FrameStrobe[4]
*93 FrameStrobe[5]
*94 FrameStrobe[6]
*95 FrameStrobe[7]
*96 FrameStrobe[8]
*97 FrameStrobe[9]
*98 FrameStrobe_O[0]
*99 FrameStrobe_O[10]
*100 FrameStrobe_O[11]
*101 FrameStrobe_O[12]
*102 FrameStrobe_O[13]
*103 FrameStrobe_O[14]
*104 FrameStrobe_O[15]
*105 FrameStrobe_O[16]
*106 FrameStrobe_O[17]
*107 FrameStrobe_O[18]
*108 FrameStrobe_O[19]
*109 FrameStrobe_O[1]
*110 FrameStrobe_O[2]
*111 FrameStrobe_O[3]
*112 FrameStrobe_O[4]
*113 FrameStrobe_O[5]
*114 FrameStrobe_O[6]
*115 FrameStrobe_O[7]
*116 FrameStrobe_O[8]
*117 FrameStrobe_O[9]
*118 N1BEG[0]
*119 N1BEG[1]
*120 N1BEG[2]
*121 N1BEG[3]
*122 N2BEG[0]
*123 N2BEG[1]
*124 N2BEG[2]
*125 N2BEG[3]
*126 N2BEG[4]
*127 N2BEG[5]
*128 N2BEG[6]
*129 N2BEG[7]
*130 N2BEGb[0]
*131 N2BEGb[1]
*132 N2BEGb[2]
*133 N2BEGb[3]
*134 N2BEGb[4]
*135 N2BEGb[5]
*136 N2BEGb[6]
*137 N2BEGb[7]
*138 N4BEG[0]
*139 N4BEG[10]
*140 N4BEG[11]
*141 N4BEG[12]
*142 N4BEG[13]
*143 N4BEG[14]
*144 N4BEG[15]
*145 N4BEG[1]
*146 N4BEG[2]
*147 N4BEG[3]
*148 N4BEG[4]
*149 N4BEG[5]
*150 N4BEG[6]
*151 N4BEG[7]
*152 N4BEG[8]
*153 N4BEG[9]
*154 NN4BEG[0]
*155 NN4BEG[10]
*156 NN4BEG[11]
*157 NN4BEG[12]
*158 NN4BEG[13]
*159 NN4BEG[14]
*160 NN4BEG[15]
*161 NN4BEG[1]
*162 NN4BEG[2]
*163 NN4BEG[3]
*164 NN4BEG[4]
*165 NN4BEG[5]
*166 NN4BEG[6]
*167 NN4BEG[7]
*168 NN4BEG[8]
*169 NN4BEG[9]
*170 S1END[0]
*171 S1END[1]
*172 S1END[2]
*173 S1END[3]
*174 S2END[0]
*175 S2END[1]
*176 S2END[2]
*177 S2END[3]
*178 S2END[4]
*179 S2END[5]
*180 S2END[6]
*181 S2END[7]
*182 S2MID[0]
*183 S2MID[1]
*184 S2MID[2]
*185 S2MID[3]
*186 S2MID[4]
*187 S2MID[5]
*188 S2MID[6]
*189 S2MID[7]
*190 S4END[0]
*191 S4END[10]
*192 S4END[11]
*193 S4END[12]
*194 S4END[13]
*195 S4END[14]
*196 S4END[15]
*197 S4END[1]
*198 S4END[2]
*199 S4END[3]
*200 S4END[4]
*201 S4END[5]
*202 S4END[6]
*203 S4END[7]
*204 S4END[8]
*205 S4END[9]
*206 SS4END[0]
*207 SS4END[10]
*208 SS4END[11]
*209 SS4END[12]
*210 SS4END[13]
*211 SS4END[14]
*212 SS4END[15]
*213 SS4END[1]
*214 SS4END[2]
*215 SS4END[3]
*216 SS4END[4]
*217 SS4END[5]
*218 SS4END[6]
*219 SS4END[7]
*220 SS4END[8]
*221 SS4END[9]
*222 UserCLK
*223 UserCLKo
*226 Inst_A_IO_1_bidirectional_frame_config_pass\.Q
*227 Inst_B_IO_1_bidirectional_frame_config_pass\.Q
*228 Inst_C_IO_1_bidirectional_frame_config_pass\.Q
*229 Inst_D_IO_1_bidirectional_frame_config_pass\.Q
*230 Inst_S_IO4_ConfigMem\.Inst_frame0_bit0\.Q
*231 Inst_S_IO4_ConfigMem\.Inst_frame0_bit1\.Q
*232 Inst_S_IO4_ConfigMem\.Inst_frame0_bit10\.Q
*233 Inst_S_IO4_ConfigMem\.Inst_frame0_bit11\.Q
*234 Inst_S_IO4_ConfigMem\.Inst_frame0_bit12\.Q
*235 Inst_S_IO4_ConfigMem\.Inst_frame0_bit13\.Q
*236 Inst_S_IO4_ConfigMem\.Inst_frame0_bit14\.Q
*237 Inst_S_IO4_ConfigMem\.Inst_frame0_bit15\.Q
*238 Inst_S_IO4_ConfigMem\.Inst_frame0_bit16\.Q
*239 Inst_S_IO4_ConfigMem\.Inst_frame0_bit17\.Q
*240 Inst_S_IO4_ConfigMem\.Inst_frame0_bit18\.Q
*241 Inst_S_IO4_ConfigMem\.Inst_frame0_bit19\.Q
*242 Inst_S_IO4_ConfigMem\.Inst_frame0_bit2\.Q
*243 Inst_S_IO4_ConfigMem\.Inst_frame0_bit20\.Q
*244 Inst_S_IO4_ConfigMem\.Inst_frame0_bit21\.Q
*245 Inst_S_IO4_ConfigMem\.Inst_frame0_bit22\.Q
*246 Inst_S_IO4_ConfigMem\.Inst_frame0_bit23\.Q
*247 Inst_S_IO4_ConfigMem\.Inst_frame0_bit24\.Q
*248 Inst_S_IO4_ConfigMem\.Inst_frame0_bit25\.Q
*249 Inst_S_IO4_ConfigMem\.Inst_frame0_bit26\.Q
*250 Inst_S_IO4_ConfigMem\.Inst_frame0_bit27\.Q
*251 Inst_S_IO4_ConfigMem\.Inst_frame0_bit28\.Q
*252 Inst_S_IO4_ConfigMem\.Inst_frame0_bit29\.Q
*253 Inst_S_IO4_ConfigMem\.Inst_frame0_bit3\.Q
*254 Inst_S_IO4_ConfigMem\.Inst_frame0_bit30\.Q
*255 Inst_S_IO4_ConfigMem\.Inst_frame0_bit31\.Q
*256 Inst_S_IO4_ConfigMem\.Inst_frame0_bit4\.Q
*257 Inst_S_IO4_ConfigMem\.Inst_frame0_bit5\.Q
*258 Inst_S_IO4_ConfigMem\.Inst_frame0_bit6\.Q
*259 Inst_S_IO4_ConfigMem\.Inst_frame0_bit7\.Q
*260 Inst_S_IO4_ConfigMem\.Inst_frame0_bit8\.Q
*261 Inst_S_IO4_ConfigMem\.Inst_frame0_bit9\.Q
*262 Inst_S_IO4_ConfigMem\.Inst_frame1_bit0\.Q
*263 Inst_S_IO4_ConfigMem\.Inst_frame1_bit1\.Q
*264 Inst_S_IO4_ConfigMem\.Inst_frame1_bit10\.Q
*265 Inst_S_IO4_ConfigMem\.Inst_frame1_bit11\.Q
*266 Inst_S_IO4_ConfigMem\.Inst_frame1_bit12\.Q
*267 Inst_S_IO4_ConfigMem\.Inst_frame1_bit13\.Q
*268 Inst_S_IO4_ConfigMem\.Inst_frame1_bit14\.Q
*269 Inst_S_IO4_ConfigMem\.Inst_frame1_bit15\.Q
*270 Inst_S_IO4_ConfigMem\.Inst_frame1_bit16\.Q
*271 Inst_S_IO4_ConfigMem\.Inst_frame1_bit17\.Q
*272 Inst_S_IO4_ConfigMem\.Inst_frame1_bit18\.Q
*273 Inst_S_IO4_ConfigMem\.Inst_frame1_bit19\.Q
*274 Inst_S_IO4_ConfigMem\.Inst_frame1_bit2\.Q
*275 Inst_S_IO4_ConfigMem\.Inst_frame1_bit20\.Q
*276 Inst_S_IO4_ConfigMem\.Inst_frame1_bit21\.Q
*277 Inst_S_IO4_ConfigMem\.Inst_frame1_bit22\.Q
*278 Inst_S_IO4_ConfigMem\.Inst_frame1_bit23\.Q
*279 Inst_S_IO4_ConfigMem\.Inst_frame1_bit24\.Q
*280 Inst_S_IO4_ConfigMem\.Inst_frame1_bit25\.Q
*281 Inst_S_IO4_ConfigMem\.Inst_frame1_bit26\.Q
*282 Inst_S_IO4_ConfigMem\.Inst_frame1_bit27\.Q
*283 Inst_S_IO4_ConfigMem\.Inst_frame1_bit28\.Q
*284 Inst_S_IO4_ConfigMem\.Inst_frame1_bit29\.Q
*285 Inst_S_IO4_ConfigMem\.Inst_frame1_bit3\.Q
*286 Inst_S_IO4_ConfigMem\.Inst_frame1_bit30\.Q
*287 Inst_S_IO4_ConfigMem\.Inst_frame1_bit31\.Q
*288 Inst_S_IO4_ConfigMem\.Inst_frame1_bit4\.Q
*289 Inst_S_IO4_ConfigMem\.Inst_frame1_bit5\.Q
*290 Inst_S_IO4_ConfigMem\.Inst_frame1_bit6\.Q
*291 Inst_S_IO4_ConfigMem\.Inst_frame1_bit7\.Q
*292 Inst_S_IO4_ConfigMem\.Inst_frame1_bit8\.Q
*293 Inst_S_IO4_ConfigMem\.Inst_frame1_bit9\.Q
*294 Inst_S_IO4_ConfigMem\.Inst_frame2_bit0\.Q
*295 Inst_S_IO4_ConfigMem\.Inst_frame2_bit1\.Q
*296 Inst_S_IO4_ConfigMem\.Inst_frame2_bit10\.Q
*297 Inst_S_IO4_ConfigMem\.Inst_frame2_bit11\.Q
*298 Inst_S_IO4_ConfigMem\.Inst_frame2_bit12\.Q
*299 Inst_S_IO4_ConfigMem\.Inst_frame2_bit13\.Q
*300 Inst_S_IO4_ConfigMem\.Inst_frame2_bit14\.Q
*301 Inst_S_IO4_ConfigMem\.Inst_frame2_bit15\.Q
*302 Inst_S_IO4_ConfigMem\.Inst_frame2_bit16\.Q
*303 Inst_S_IO4_ConfigMem\.Inst_frame2_bit17\.Q
*304 Inst_S_IO4_ConfigMem\.Inst_frame2_bit18\.Q
*305 Inst_S_IO4_ConfigMem\.Inst_frame2_bit19\.Q
*306 Inst_S_IO4_ConfigMem\.Inst_frame2_bit2\.Q
*307 Inst_S_IO4_ConfigMem\.Inst_frame2_bit20\.Q
*308 Inst_S_IO4_ConfigMem\.Inst_frame2_bit21\.Q
*309 Inst_S_IO4_ConfigMem\.Inst_frame2_bit22\.Q
*310 Inst_S_IO4_ConfigMem\.Inst_frame2_bit23\.Q
*311 Inst_S_IO4_ConfigMem\.Inst_frame2_bit24\.Q
*312 Inst_S_IO4_ConfigMem\.Inst_frame2_bit25\.Q
*313 Inst_S_IO4_ConfigMem\.Inst_frame2_bit26\.Q
*314 Inst_S_IO4_ConfigMem\.Inst_frame2_bit27\.Q
*315 Inst_S_IO4_ConfigMem\.Inst_frame2_bit28\.Q
*316 Inst_S_IO4_ConfigMem\.Inst_frame2_bit29\.Q
*317 Inst_S_IO4_ConfigMem\.Inst_frame2_bit3\.Q
*318 Inst_S_IO4_ConfigMem\.Inst_frame2_bit30\.Q
*319 Inst_S_IO4_ConfigMem\.Inst_frame2_bit31\.Q
*320 Inst_S_IO4_ConfigMem\.Inst_frame2_bit4\.Q
*321 Inst_S_IO4_ConfigMem\.Inst_frame2_bit5\.Q
*322 Inst_S_IO4_ConfigMem\.Inst_frame2_bit6\.Q
*323 Inst_S_IO4_ConfigMem\.Inst_frame2_bit7\.Q
*324 Inst_S_IO4_ConfigMem\.Inst_frame2_bit8\.Q
*325 Inst_S_IO4_ConfigMem\.Inst_frame2_bit9\.Q
*326 Inst_S_IO4_ConfigMem\.Inst_frame3_bit0\.Q
*327 Inst_S_IO4_ConfigMem\.Inst_frame3_bit1\.Q
*328 Inst_S_IO4_ConfigMem\.Inst_frame3_bit10\.Q
*329 Inst_S_IO4_ConfigMem\.Inst_frame3_bit11\.Q
*330 Inst_S_IO4_ConfigMem\.Inst_frame3_bit12\.Q
*331 Inst_S_IO4_ConfigMem\.Inst_frame3_bit13\.Q
*332 Inst_S_IO4_ConfigMem\.Inst_frame3_bit14\.Q
*333 Inst_S_IO4_ConfigMem\.Inst_frame3_bit15\.Q
*334 Inst_S_IO4_ConfigMem\.Inst_frame3_bit16\.Q
*335 Inst_S_IO4_ConfigMem\.Inst_frame3_bit17\.Q
*336 Inst_S_IO4_ConfigMem\.Inst_frame3_bit18\.Q
*337 Inst_S_IO4_ConfigMem\.Inst_frame3_bit19\.Q
*338 Inst_S_IO4_ConfigMem\.Inst_frame3_bit2\.Q
*339 Inst_S_IO4_ConfigMem\.Inst_frame3_bit20\.Q
*340 Inst_S_IO4_ConfigMem\.Inst_frame3_bit21\.Q
*341 Inst_S_IO4_ConfigMem\.Inst_frame3_bit22\.Q
*342 Inst_S_IO4_ConfigMem\.Inst_frame3_bit23\.Q
*343 Inst_S_IO4_ConfigMem\.Inst_frame3_bit24\.Q
*344 Inst_S_IO4_ConfigMem\.Inst_frame3_bit25\.Q
*345 Inst_S_IO4_ConfigMem\.Inst_frame3_bit26\.Q
*346 Inst_S_IO4_ConfigMem\.Inst_frame3_bit27\.Q
*347 Inst_S_IO4_ConfigMem\.Inst_frame3_bit28\.Q
*348 Inst_S_IO4_ConfigMem\.Inst_frame3_bit29\.Q
*349 Inst_S_IO4_ConfigMem\.Inst_frame3_bit3\.Q
*350 Inst_S_IO4_ConfigMem\.Inst_frame3_bit30\.Q
*351 Inst_S_IO4_ConfigMem\.Inst_frame3_bit31\.Q
*352 Inst_S_IO4_ConfigMem\.Inst_frame3_bit4\.Q
*353 Inst_S_IO4_ConfigMem\.Inst_frame3_bit5\.Q
*354 Inst_S_IO4_ConfigMem\.Inst_frame3_bit6\.Q
*355 Inst_S_IO4_ConfigMem\.Inst_frame3_bit7\.Q
*356 Inst_S_IO4_ConfigMem\.Inst_frame3_bit8\.Q
*357 Inst_S_IO4_ConfigMem\.Inst_frame3_bit9\.Q
*358 Inst_S_IO4_ConfigMem\.Inst_frame4_bit28\.Q
*359 Inst_S_IO4_ConfigMem\.Inst_frame4_bit29\.Q
*360 Inst_S_IO4_ConfigMem\.Inst_frame4_bit30\.Q
*361 Inst_S_IO4_ConfigMem\.Inst_frame4_bit31\.Q
*362 Inst_S_IO4_switch_matrix\.N1BEG0
*363 Inst_S_IO4_switch_matrix\.N1BEG1
*364 Inst_S_IO4_switch_matrix\.N1BEG2
*365 Inst_S_IO4_switch_matrix\.N1BEG3
*366 Inst_S_IO4_switch_matrix\.N2BEG0
*367 Inst_S_IO4_switch_matrix\.N2BEG1
*368 Inst_S_IO4_switch_matrix\.N2BEG2
*369 Inst_S_IO4_switch_matrix\.N2BEG3
*370 Inst_S_IO4_switch_matrix\.N2BEG4
*371 Inst_S_IO4_switch_matrix\.N2BEG5
*372 Inst_S_IO4_switch_matrix\.N2BEG6
*373 Inst_S_IO4_switch_matrix\.N2BEG7
*374 Inst_S_IO4_switch_matrix\.N2BEGb0
*375 Inst_S_IO4_switch_matrix\.N2BEGb1
*376 Inst_S_IO4_switch_matrix\.N2BEGb2
*377 Inst_S_IO4_switch_matrix\.N2BEGb3
*378 Inst_S_IO4_switch_matrix\.N2BEGb4
*379 Inst_S_IO4_switch_matrix\.N2BEGb5
*380 Inst_S_IO4_switch_matrix\.N2BEGb6
*381 Inst_S_IO4_switch_matrix\.N2BEGb7
*382 Inst_S_IO4_switch_matrix\.N4BEG0
*383 Inst_S_IO4_switch_matrix\.N4BEG1
*384 Inst_S_IO4_switch_matrix\.N4BEG10
*385 Inst_S_IO4_switch_matrix\.N4BEG11
*386 Inst_S_IO4_switch_matrix\.N4BEG12
*387 Inst_S_IO4_switch_matrix\.N4BEG13
*388 Inst_S_IO4_switch_matrix\.N4BEG14
*389 Inst_S_IO4_switch_matrix\.N4BEG15
*390 Inst_S_IO4_switch_matrix\.N4BEG2
*391 Inst_S_IO4_switch_matrix\.N4BEG3
*392 Inst_S_IO4_switch_matrix\.N4BEG4
*393 Inst_S_IO4_switch_matrix\.N4BEG5
*394 Inst_S_IO4_switch_matrix\.N4BEG6
*395 Inst_S_IO4_switch_matrix\.N4BEG7
*396 Inst_S_IO4_switch_matrix\.N4BEG8
*397 Inst_S_IO4_switch_matrix\.N4BEG9
*398 Inst_S_IO4_switch_matrix\.NN4BEG0
*399 Inst_S_IO4_switch_matrix\.NN4BEG1
*400 Inst_S_IO4_switch_matrix\.NN4BEG10
*401 Inst_S_IO4_switch_matrix\.NN4BEG11
*402 Inst_S_IO4_switch_matrix\.NN4BEG12
*403 Inst_S_IO4_switch_matrix\.NN4BEG13
*404 Inst_S_IO4_switch_matrix\.NN4BEG14
*405 Inst_S_IO4_switch_matrix\.NN4BEG15
*406 Inst_S_IO4_switch_matrix\.NN4BEG2
*407 Inst_S_IO4_switch_matrix\.NN4BEG3
*408 Inst_S_IO4_switch_matrix\.NN4BEG4
*409 Inst_S_IO4_switch_matrix\.NN4BEG5
*410 Inst_S_IO4_switch_matrix\.NN4BEG6
*411 Inst_S_IO4_switch_matrix\.NN4BEG7
*412 Inst_S_IO4_switch_matrix\.NN4BEG8
*413 Inst_S_IO4_switch_matrix\.NN4BEG9
*414 UserCLK_regs
*415 _000_
*416 _001_
*417 _002_
*418 _003_
*419 _004_
*420 _005_
*421 _006_
*422 _007_
*423 _008_
*424 _009_
*425 _010_
*426 _011_
*427 _012_
*428 _013_
*429 _014_
*430 _015_
*431 _016_
*432 _017_
*433 _018_
*434 _019_
*435 _020_
*436 _021_
*437 _022_
*438 _023_
*439 _024_
*440 _025_
*441 _026_
*442 _027_
*443 _028_
*444 _029_
*445 _030_
*446 _031_
*447 _032_
*448 _033_
*449 _034_
*450 _035_
*451 _036_
*452 _037_
*453 _038_
*454 _039_
*455 _040_
*456 _041_
*457 _042_
*458 _043_
*459 _044_
*460 _045_
*461 _046_
*462 _047_
*463 _048_
*464 _049_
*465 _050_
*466 _051_
*467 _052_
*468 _053_
*469 _054_
*470 _055_
*471 _056_
*472 _057_
*473 _058_
*474 _059_
*475 _060_
*476 _061_
*477 _062_
*478 _063_
*479 _064_
*480 _065_
*481 _066_
*482 _067_
*483 _068_
*484 _069_
*485 _070_
*486 _071_
*487 _072_
*488 _073_
*489 _074_
*490 _075_
*491 _076_
*492 _077_
*493 _078_
*494 _079_
*495 _080_
*496 _081_
*497 _082_
*498 clknet_0_UserCLK
*499 clknet_0_UserCLK_regs
*500 clknet_1_0__leaf_UserCLK
*501 clknet_1_0__leaf_UserCLK_regs
*502 clknet_1_1__leaf_UserCLK_regs
*503 FILLER_0_0
*504 FILLER_0_126
*505 FILLER_0_128
*506 FILLER_0_150
*507 FILLER_0_152
*508 FILLER_0_170
*509 FILLER_0_188
*510 FILLER_0_224
*511 FILLER_0_226
*512 FILLER_0_24
*513 FILLER_0_26
*514 FILLER_0_333
*515 FILLER_0_356
*516 FILLER_0_422
*517 FILLER_0_44
*518 FILLER_0_46
*519 FILLER_10_0
*520 FILLER_10_154
*521 FILLER_10_156
*522 FILLER_10_203
*523 FILLER_10_210
*524 FILLER_10_212
*525 FILLER_10_234
*526 FILLER_10_302
*527 FILLER_10_332
*528 FILLER_10_358
*529 FILLER_10_4
*530 FILLER_10_422
*531 FILLER_10_54
*532 FILLER_10_56
*533 FILLER_11_0
*534 FILLER_11_104
*535 FILLER_11_111
*536 FILLER_11_118
*537 FILLER_11_127
*538 FILLER_11_134
*539 FILLER_11_179
*540 FILLER_11_185
*541 FILLER_11_189
*542 FILLER_11_245
*543 FILLER_11_247
*544 FILLER_11_273
*545 FILLER_11_280
*546 FILLER_11_287
*547 FILLER_11_291
*548 FILLER_11_361
*549 FILLER_11_422
*550 FILLER_11_43
*551 FILLER_11_50
*552 FILLER_11_69
*553 FILLER_11_71
*554 FILLER_11_77
*555 FILLER_11_83
*556 FILLER_11_97
*557 FILLER_1_0
*558 FILLER_1_118
*559 FILLER_1_136
*560 FILLER_1_138
*561 FILLER_1_190
*562 FILLER_1_2
*563 FILLER_1_335
*564 FILLER_1_337
*565 FILLER_1_365
*566 FILLER_1_367
*567 FILLER_1_408
*568 FILLER_1_410
*569 FILLER_1_46
*570 FILLER_1_55
*571 FILLER_1_78
*572 FILLER_2_0
*573 FILLER_2_180
*574 FILLER_2_2
*575 FILLER_2_223
*576 FILLER_2_227
*577 FILLER_2_267
*578 FILLER_2_294
*579 FILLER_2_299
*580 FILLER_2_325
*581 FILLER_2_327
*582 FILLER_2_349
*583 FILLER_2_376
*584 FILLER_2_378
*585 FILLER_2_41
*586 FILLER_2_423
*587 FILLER_3_0
*588 FILLER_3_139
*589 FILLER_3_217
*590 FILLER_3_221
*591 FILLER_3_239
*592 FILLER_3_342
*593 FILLER_3_361
*594 FILLER_3_363
*595 FILLER_3_381
*596 FILLER_4_0
*597 FILLER_4_131
*598 FILLER_4_133
*599 FILLER_4_155
*600 FILLER_4_161
*601 FILLER_4_207
*602 FILLER_4_230
*603 FILLER_4_237
*604 FILLER_4_241
*605 FILLER_4_263
*606 FILLER_4_390
*607 FILLER_4_392
*608 FILLER_4_422
*609 FILLER_4_50
*610 FILLER_4_91
*611 FILLER_5_136
*612 FILLER_5_161
*613 FILLER_5_204
*614 FILLER_5_211
*615 FILLER_5_272
*616 FILLER_5_311
*617 FILLER_5_355
*618 FILLER_5_38
*619 FILLER_5_394
*620 FILLER_5_40
*621 FILLER_6_0
*622 FILLER_6_106
*623 FILLER_6_119
*624 FILLER_6_123
*625 FILLER_6_150
*626 FILLER_6_154
*627 FILLER_6_18
*628 FILLER_6_20
*629 FILLER_6_227
*630 FILLER_6_234
*631 FILLER_6_258
*632 FILLER_6_310
*633 FILLER_6_353
*634 FILLER_6_412
*635 FILLER_6_421
*636 FILLER_6_423
*637 FILLER_6_75
*638 FILLER_7_101
*639 FILLER_7_174
*640 FILLER_7_181
*641 FILLER_7_204
*642 FILLER_7_211
*643 FILLER_7_218
*644 FILLER_7_257
*645 FILLER_7_351
*646 FILLER_7_373
*647 FILLER_7_400
*648 FILLER_7_410
*649 FILLER_7_412
*650 FILLER_7_421
*651 FILLER_7_423
*652 FILLER_7_77
*653 FILLER_8_0
*654 FILLER_8_123
*655 FILLER_8_146
*656 FILLER_8_148
*657 FILLER_8_170
*658 FILLER_8_174
*659 FILLER_8_196
*660 FILLER_8_203
*661 FILLER_8_205
*662 FILLER_8_22
*663 FILLER_8_240
*664 FILLER_8_244
*665 FILLER_8_262
*666 FILLER_8_269
*667 FILLER_8_297
*668 FILLER_8_33
*669 FILLER_8_353
*670 FILLER_8_355
*671 FILLER_8_423
*672 FILLER_8_62
*673 FILLER_9_0
*674 FILLER_9_124
*675 FILLER_9_131
*676 FILLER_9_150
*677 FILLER_9_233
*678 FILLER_9_237
*679 FILLER_9_24
*680 FILLER_9_26
*681 FILLER_9_263
*682 FILLER_9_265
*683 FILLER_9_312
*684 FILLER_9_335
*685 FILLER_9_337
*686 FILLER_9_421
*687 FILLER_9_423
*688 FILLER_9_54
*689 _083_
*690 _084_
*691 _085_
*692 _086_
*693 _087_
*694 _088_
*695 _089_
*696 _090_
*697 _091_
*698 _092_
*699 _093_
*700 _094_
*701 _095_
*702 _096_
*703 _097_
*704 _098_
*705 _099_
*706 _100_
*707 _101_
*708 _102_
*709 _103_
*710 _104_
*711 _105_
*712 _106_
*713 _107_
*714 _108_
*715 _109_
*716 _110_
*717 _111_
*718 _112_
*719 _113_
*720 _114_
*721 _115_
*722 _116_
*723 _117_
*724 _118_
*725 _119_
*726 _120_
*727 _121_
*728 _122_
*729 _123_
*730 _124_
*731 _125_
*732 _126_
*733 _127_
*734 _128_
*735 _129_
*736 _130_
*737 _131_
*738 _132_
*739 _133_
*740 _134_
*741 _135_
*742 _136_
*743 _137_
*744 _138_
*745 _139_
*746 _140_
*747 _141_
*748 _142_
*749 _143_
*750 _144_
*751 _145_
*752 _146_
*753 _147_
*754 _148_
*755 _149_
*756 _150_
*757 _151_
*758 _152_
*759 _153_
*760 _154_
*761 _155_
*762 _156_
*763 _157_
*764 _158_
*765 _159_
*766 _160_
*767 _161_
*768 _162_
*769 _163_
*770 _164_
*771 _165_
*772 _166_
*773 _167_
*774 _168_
*775 _169_
*776 _170_
*777 _171_
*778 _172_
*779 _173_
*780 _174_
*781 _175_
*782 _176_
*783 _177_
*784 _178_
*785 _179_
*786 _180_
*787 _181_
*788 _182_
*789 _183_
*790 _184_
*791 _185_
*792 _186_
*793 _187_
*794 _188_
*795 _189_
*796 _190_
*797 _191_
*798 _192_
*799 _193_
*800 _194_
*801 _195_
*802 _196_
*803 _197_
*804 _198_
*805 _199_
*806 _200_
*807 _201_
*808 _202_
*809 _203_
*810 _204_
*811 _205_
*812 _206_
*813 _207_
*814 _208_
*815 _209_
*816 _210_
*817 _211_
*818 _212_
*819 _213_
*820 _214_
*821 _215_
*822 _216_
*823 _217_
*824 _218_
*825 _219_
*826 _220_
*827 _221_
*828 _222_
*829 _223_
*830 _224_
*831 _225_
*832 _226_
*833 _227_
*834 _228_
*835 _229_
*836 _230_
*837 _231_
*838 _232_
*839 _233_
*840 _234_
*841 _235_
*842 _236_
*843 _237_
*844 _238_
*845 _239_
*846 _240_
*847 _241_
*848 _242_
*849 _243_
*850 _244_
*851 _245_
*852 _246_
*853 _247_
*854 _248_
*855 _249_
*856 _250_
*857 _251_
*858 _252_
*859 _253_
*860 _254_
*861 _255_
*862 _256_
*863 _257_
*864 _258_
*865 _259_
*866 _260_
*867 _261_
*868 _262_
*869 _263_
*870 _264_
*871 _265_
*872 _266_
*873 _267_
*874 _268_
*875 _269_
*876 _270_
*877 _271_
*878 _272_
*879 _273_
*880 _274_
*881 _275_
*882 _276_
*883 _277_
*884 _278_
*885 _279_
*886 _280_
*887 _281_
*888 _282_
*889 _283_
*890 _284_
*891 _285_
*892 _286_
*893 _287_
*894 _288_
*895 _289_
*896 _290_
*897 _291_
*898 _292_
*899 _293_
*900 _294_
*901 _295_
*902 _296_
*903 _297_
*904 _298_
*905 _299_
*906 _300_
*907 _301_
*908 _302_
*909 _303_
*910 _304_
*911 _305_
*912 _306_
*913 _307_
*914 _308_
*915 _309_
*916 _310_
*917 _311_
*918 _312_
*919 _313_
*920 _314_
*921 _315_
*922 _316_
*923 _317_
*924 _318_
*925 _319_
*926 _320_
*927 _321_
*928 _322_
*929 _323_
*930 _324_
*931 _325_
*932 _326_
*933 _327_
*934 _328_
*935 _329_
*936 _330_
*937 _331_
*938 _332_
*939 _333_
*940 _334_
*941 _335_
*942 _336_
*943 _337_
*944 _338_
*945 _339_
*946 _340_
*947 _341_
*948 _342_
*949 _343_
*950 _344_
*951 _345_
*952 _346_
*953 _347_
*954 _348_
*955 _349_
*956 _350_
*957 _351_
*958 _352_
*959 _353_
*960 _354_
*961 _355_
*962 _356_
*963 _357_
*964 _358_
*965 _359_
*966 _360_
*967 _361_
*968 _362_
*969 _363_
*970 _364_
*971 _365_
*972 _366_
*973 _367_
*974 _368_
*975 _369_
*976 _370_
*977 _371_
*978 _372_
*979 _373_
*980 _374_
*981 _375_
*982 _376_
*983 _377_
*984 _378_
*985 _379_
*986 _380_
*987 _381_
*988 _382_
*989 _383_
*990 _384_
*991 _385_
*992 _386_
*993 _387_
*994 _388_
*995 _389_
*996 _390_
*997 _391_
*998 _392_
*999 _393_
*1000 _394_
*1001 _395_
*1002 _396_
*1003 _397_
*1004 _398_
*1005 _399_
*1006 _400_
*1007 _401_
*1008 _402_
*1009 _403_
*1010 _404_
*1011 _405_
*1012 _406_
*1013 _407_
*1014 _408_
*1015 _409_
*1016 _410_
*1017 _411_
*1018 _412_
*1019 _413_
*1020 _414_
*1021 _415_
*1022 _416_
*1023 _417_
*1024 _418_
*1025 _419_
*1026 _420_
*1027 _421_
*1028 _422_
*1029 _423_
*1030 _424_
*1031 _425_
*1032 _426_
*1033 _427_
*1034 _428_
*1035 _429_
*1036 _430_
*1037 _431_
*1038 _432_
*1039 _433_
*1040 _434_
*1041 _435_
*1042 _436_
*1043 _437_
*1044 _438_
*1045 _439_
*1046 _440_
*1047 _441_
*1048 _442_
*1049 _443_
*1050 _444_
*1051 _445_
*1052 _446_
*1053 _447_
*1054 _448_
*1055 _449_
*1056 _450_
*1057 _451_
*1058 _452_
*1059 _453_
*1060 _454_
*1061 _455_
*1062 _456_
*1063 _457_
*1064 _458_
*1065 _459_
*1066 _460_
*1067 _461_
*1068 _462_
*1069 _463_
*1070 _464_
*1071 _465_
*1072 _466_
*1073 _467_
*1074 clkbuf_0_UserCLK
*1075 clkbuf_0_UserCLK_regs
*1076 clkbuf_1_0__f_UserCLK
*1077 clkbuf_1_0__f_UserCLK_regs
*1078 clkbuf_1_1__f_UserCLK_regs
*1079 clkbuf_regs_0_UserCLK

*PORTS
A_I_top O
A_O_top I
A_T_top O
B_I_top O
B_O_top I
B_T_top O
C_I_top O
C_O_top I
C_T_top O
Co O
D_I_top O
D_O_top I
D_T_top O
FrameData[0] I
FrameData[10] I
FrameData[11] I
FrameData[12] I
FrameData[13] I
FrameData[14] I
FrameData[15] I
FrameData[16] I
FrameData[17] I
FrameData[18] I
FrameData[19] I
FrameData[1] I
FrameData[20] I
FrameData[21] I
FrameData[22] I
FrameData[23] I
FrameData[24] I
FrameData[25] I
FrameData[26] I
FrameData[27] I
FrameData[28] I
FrameData[29] I
FrameData[2] I
FrameData[30] I
FrameData[31] I
FrameData[3] I
FrameData[4] I
FrameData[5] I
FrameData[6] I
FrameData[7] I
FrameData[8] I
FrameData[9] I
FrameData_O[0] O
FrameData_O[10] O
FrameData_O[11] O
FrameData_O[12] O
FrameData_O[13] O
FrameData_O[14] O
FrameData_O[15] O
FrameData_O[16] O
FrameData_O[17] O
FrameData_O[18] O
FrameData_O[19] O
FrameData_O[1] O
FrameData_O[20] O
FrameData_O[21] O
FrameData_O[22] O
FrameData_O[23] O
FrameData_O[24] O
FrameData_O[25] O
FrameData_O[26] O
FrameData_O[27] O
FrameData_O[28] O
FrameData_O[29] O
FrameData_O[2] O
FrameData_O[30] O
FrameData_O[31] O
FrameData_O[3] O
FrameData_O[4] O
FrameData_O[5] O
FrameData_O[6] O
FrameData_O[7] O
FrameData_O[8] O
FrameData_O[9] O
FrameStrobe[0] I
FrameStrobe[10] I
FrameStrobe[11] I
FrameStrobe[12] I
FrameStrobe[13] I
FrameStrobe[14] I
FrameStrobe[15] I
FrameStrobe[16] I
FrameStrobe[17] I
FrameStrobe[18] I
FrameStrobe[19] I
FrameStrobe[1] I
FrameStrobe[2] I
FrameStrobe[3] I
FrameStrobe[4] I
FrameStrobe[5] I
FrameStrobe[6] I
FrameStrobe[7] I
FrameStrobe[8] I
FrameStrobe[9] I
FrameStrobe_O[0] O
FrameStrobe_O[10] O
FrameStrobe_O[11] O
FrameStrobe_O[12] O
FrameStrobe_O[13] O
FrameStrobe_O[14] O
FrameStrobe_O[15] O
FrameStrobe_O[16] O
FrameStrobe_O[17] O
FrameStrobe_O[18] O
FrameStrobe_O[19] O
FrameStrobe_O[1] O
FrameStrobe_O[2] O
FrameStrobe_O[3] O
FrameStrobe_O[4] O
FrameStrobe_O[5] O
FrameStrobe_O[6] O
FrameStrobe_O[7] O
FrameStrobe_O[8] O
FrameStrobe_O[9] O
N1BEG[0] O
N1BEG[1] O
N1BEG[2] O
N1BEG[3] O
N2BEG[0] O
N2BEG[1] O
N2BEG[2] O
N2BEG[3] O
N2BEG[4] O
N2BEG[5] O
N2BEG[6] O
N2BEG[7] O
N2BEGb[0] O
N2BEGb[1] O
N2BEGb[2] O
N2BEGb[3] O
N2BEGb[4] O
N2BEGb[5] O
N2BEGb[6] O
N2BEGb[7] O
N4BEG[0] O
N4BEG[10] O
N4BEG[11] O
N4BEG[12] O
N4BEG[13] O
N4BEG[14] O
N4BEG[15] O
N4BEG[1] O
N4BEG[2] O
N4BEG[3] O
N4BEG[4] O
N4BEG[5] O
N4BEG[6] O
N4BEG[7] O
N4BEG[8] O
N4BEG[9] O
NN4BEG[0] O
NN4BEG[10] O
NN4BEG[11] O
NN4BEG[12] O
NN4BEG[13] O
NN4BEG[14] O
NN4BEG[15] O
NN4BEG[1] O
NN4BEG[2] O
NN4BEG[3] O
NN4BEG[4] O
NN4BEG[5] O
NN4BEG[6] O
NN4BEG[7] O
NN4BEG[8] O
NN4BEG[9] O
S1END[0] I
S1END[1] I
S1END[2] I
S1END[3] I
S2END[0] I
S2END[1] I
S2END[2] I
S2END[3] I
S2END[4] I
S2END[5] I
S2END[6] I
S2END[7] I
S2MID[0] I
S2MID[1] I
S2MID[2] I
S2MID[3] I
S2MID[4] I
S2MID[5] I
S2MID[6] I
S2MID[7] I
S4END[0] I
S4END[10] I
S4END[11] I
S4END[12] I
S4END[13] I
S4END[14] I
S4END[15] I
S4END[1] I
S4END[2] I
S4END[3] I
S4END[4] I
S4END[5] I
S4END[6] I
S4END[7] I
S4END[8] I
S4END[9] I
SS4END[0] I
SS4END[10] I
SS4END[11] I
SS4END[12] I
SS4END[13] I
SS4END[14] I
SS4END[15] I
SS4END[1] I
SS4END[2] I
SS4END[3] I
SS4END[4] I
SS4END[5] I
SS4END[6] I
SS4END[7] I
SS4END[8] I
SS4END[9] I
UserCLK I
UserCLKo O

*D_NET *1 0.00771719
*CONN
*P A_I_top O
*I *785:Y O *D sg13g2_o21ai_1
*CAP
1 A_I_top 0.000885513
2 *785:Y 0.000672458
3 *1:12 0.00155797
4 A_I_top *783:S 0.000553334
5 A_I_top *6:16 0.000177101
6 A_I_top *15:32 0.00220235
7 A_I_top *39:11 0
8 A_I_top *78:33 0
9 A_I_top *78:48 0.000126358
10 A_I_top *258:10 0.00023426
11 A_I_top *258:23 0.000712343
12 *1:12 *781:A3 0
13 *1:12 *781:S1 0
14 *1:12 *782:S1 8.21246e-05
15 *1:12 *785:A2 0.000273049
16 *1:12 *940:D 7.98567e-05
17 *1:12 *17:39 0.000160475
*RES
1 *785:Y *1:12 46.18 
2 *1:12 A_I_top 33.4312 
*END

*D_NET *2 0.0472938
*CONN
*P A_O_top I
*I *811:A2 I *D sg13g2_mux4_1
*I *815:A1 I *D sg13g2_mux4_1
*I *813:A2 I *D sg13g2_mux4_1
*I *960:D I *D sg13g2_dfrbpq_1
*I *817:A1 I *D sg13g2_mux4_1
*I *801:A3 I *D sg13g2_mux4_1
*I *791:A3 I *D sg13g2_mux4_1
*I *702:A1 I *D sg13g2_mux4_1
*CAP
1 A_O_top 0.000860065
2 *811:A2 0.00020224
3 *815:A1 0.00117388
4 *813:A2 0
5 *960:D 0
6 *817:A1 0
7 *801:A3 0
8 *791:A3 0
9 *702:A1 0.000501959
10 *2:118 0.001376
11 *2:111 6.16821e-05
12 *2:103 0.00117926
13 *2:90 0.00200161
14 *2:75 0.00185446
15 *2:64 0.000823248
16 *2:60 0.00179293
17 *2:56 0.00297712
18 *2:41 0.00336426
19 *2:37 0.00263688
20 *2:29 0.0016109
21 *2:15 0.00165948
22 *702:A1 *828:D 0.00030487
23 *702:A1 *913:GATE 8.00842e-05
24 *702:A1 *122:14 0
25 *811:A2 *215:31 0
26 *811:A2 *364:28 0
27 *815:A1 *815:S0 4.75166e-05
28 *815:A1 *872:D 0.000208035
29 *815:A1 *876:GATE 0
30 *815:A1 *882:D 0.000207845
31 *815:A1 *90:280 0
32 *815:A1 *105:14 0
33 *2:15 *703:S1 0
34 *2:15 *708:A2 0
35 *2:15 *41:9 0
36 *2:15 *78:54 0.00027387
37 *2:15 *78:61 0.000272713
38 *2:15 *178:75 0.000181192
39 *2:15 *232:6 4.75151e-05
40 *2:15 *256:6 0
41 *2:15 *261:8 4.75425e-05
42 *2:15 *485:10 0
43 *2:29 *708:A1 0.000134139
44 *2:29 *708:A2 0.000367756
45 *2:29 *709:A0 0
46 *2:29 *945:D 0
47 *2:29 *952:GATE 0
48 *2:29 *3:12 0.000367756
49 *2:29 *16:19 0.000234416
50 *2:29 *17:21 0.000234224
51 *2:29 *78:76 0
52 *2:29 *78:80 0
53 *2:29 *78:87 0
54 *2:29 *237:10 0.000209641
55 *2:29 *237:14 4.77425e-05
56 *2:29 *237:31 3.23694e-05
57 *2:29 *238:10 0
58 *2:37 *948:D 0
59 *2:37 *22:5 0.000181192
60 *2:37 *22:28 0
61 *2:37 *24:15 0
62 *2:37 *174:99 0.000127221
63 *2:37 *428:12 7.58826e-05
64 *2:37 *433:10 0
65 *2:41 *21:34 0
66 *2:41 *22:28 0
67 *2:41 *23:9 0.000233818
68 *2:41 *26:24 0
69 *2:41 *32:50 0.000177977
70 *2:41 *78:341 0.000126445
71 *2:41 *89:77 0.000181192
72 *2:41 *89:88 5.30319e-05
73 *2:41 *182:83 7.30101e-05
74 *2:41 *367:22 0.00102671
75 *2:41 *422:8 0.00165871
76 *2:41 *433:10 7.48842e-05
77 *2:56 *694:S0 1.54008e-05
78 *2:56 *89:88 0.000864127
79 *2:56 *89:99 0.00073841
80 *2:56 *89:114 0.0010981
81 *2:56 *213:17 0
82 *2:56 *364:28 0
83 *2:56 *367:22 0.00343239
84 *2:60 *8:71 0
85 *2:60 *91:156 0
86 *2:60 *181:84 0.00103261
87 *2:60 *184:15 0
88 *2:60 *184:121 0
89 *2:60 *213:17 0
90 *2:60 *370:12 0.00113483
91 *2:75 *826:S1 0
92 *2:75 *921:GATE 0
93 *2:75 *78:407 0
94 *2:75 *200:31 0.000755612
95 *2:90 FrameData_O[6] 0
96 *2:90 *801:S1 0
97 *2:90 *802:A3 0.000755052
98 *2:90 *826:S1 0
99 *2:90 *32:78 0.00168928
100 *2:90 *78:407 0
101 *2:90 *89:211 0.000554111
102 *2:90 *374:20 0
103 *2:103 FrameData_O[6] 0
104 *2:103 *32:78 0.0020892
105 *2:103 *41:61 0.00102436
106 *2:103 *82:9 0.0002872
107 *2:103 *87:13 0
108 *2:103 *353:8 0
109 *2:111 FrameData_O[6] 0.000181192
110 *2:111 *1013:A 4.77425e-05
111 *2:111 *41:61 0.000181192
112 *2:111 *105:14 4.77425e-05
113 *2:118 *105:14 0
*RES
1 A_O_top *2:15 48.8168 
2 *2:15 *2:29 48.8889 
3 *2:29 *2:37 46.9422 
4 *2:37 *2:41 39.1374 
5 *2:41 *702:A1 44.429 
6 *2:41 *2:56 37.3555 
7 *2:56 *2:60 36.6654 
8 *2:60 *2:64 20.5356 
9 *2:64 *791:A3 20 
10 *2:64 *2:75 7.8486 
11 *2:75 *801:A3 20 
12 *2:75 *2:90 34.3788 
13 *2:90 *817:A1 40 
14 *2:90 *2:103 32.7514 
15 *2:103 *2:111 41.1639 
16 *2:111 *960:D 20 
17 *2:103 *2:118 1.6171 
18 *2:118 *813:A2 20 
19 *2:118 *815:A1 29.9704 
20 *2:56 *811:A2 21.854 
*END

*D_NET *3 0.00592978
*CONN
*P A_T_top O
*I *708:Y O *D sg13g2_o21ai_1
*CAP
1 A_T_top 0.000682903
2 *708:Y 0.000658986
3 *3:12 0.00134189
4 A_T_top *778:A1 0.000143351
5 A_T_top *43:27 0.000208681
6 A_T_top *78:27 0.00014391
7 A_T_top *258:10 4.77425e-05
8 *3:12 *703:S1 4.98172e-05
9 *3:12 *708:A2 0
10 *3:12 *17:21 0
11 *3:12 *43:15 0.00119711
12 *3:12 *178:75 0
13 *3:12 *189:77 0.00032144
14 *3:12 *189:83 0.000766199
15 *2:29 *3:12 0.000367756
*RES
1 *708:Y *3:12 49.6408 
2 *3:12 A_T_top 26.6744 
*END

*D_NET *4 0.00611101
*CONN
*P B_I_top O
*I *769:Y O *D sg13g2_o21ai_1
*CAP
1 B_I_top 0.000938641
2 *769:Y 0
3 *4:6 0.000938641
4 B_I_top *762:A1 0.000987814
5 B_I_top *6:20 0.000666837
6 B_I_top *39:11 0.00257908
7 B_I_top *78:21 0
8 B_I_top *78:27 0
*RES
1 *769:Y *4:6 40 
2 *4:6 B_I_top 34.2964 
*END

*D_NET *5 0.0385092
*CONN
*P B_O_top I
*I *790:A3 I *D sg13g2_mux4_1
*I *961:D I *D sg13g2_dfrbpq_1
*I *800:A3 I *D sg13g2_mux4_1
*I *814:A1 I *D sg13g2_mux4_1
*I *812:A2 I *D sg13g2_mux4_1
*I *810:A1 I *D sg13g2_mux4_1
*I *816:A1 I *D sg13g2_mux4_1
*I *700:A2 I *D sg13g2_mux4_1
*CAP
1 B_O_top 3.79905e-05
2 *790:A3 0.00101585
3 *961:D 0.000495434
4 *800:A3 0
5 *814:A1 4.37077e-05
6 *812:A2 0.000154664
7 *810:A1 0
8 *816:A1 7.98343e-05
9 *700:A2 4.49564e-05
10 *5:104 0.000563361
11 *5:102 0.00164329
12 *5:89 0.000693225
13 *5:78 0.00101511
14 *5:63 0.00158505
15 *5:48 0.0020883