* NGSPICE file created from heichips25_example_large.ext - technology: ihp-sg13g2

* Black-box entry subcircuit for sg13g2_decap_8 abstract view
.subckt sg13g2_decap_8 VDD VSS
.ends

* Black-box entry subcircuit for sg13g2_fill_1 abstract view
.subckt sg13g2_fill_1 VDD VSS
.ends

* Black-box entry subcircuit for sg13g2_decap_4 abstract view
.subckt sg13g2_decap_4 VDD VSS
.ends

* Black-box entry subcircuit for sg13g2_nand2_1 abstract view
.subckt sg13g2_nand2_1 Y A B VDD VSS
.ends

* Black-box entry subcircuit for sg13g2_fill_2 abstract view
.subckt sg13g2_fill_2 VDD VSS
.ends

* Black-box entry subcircuit for sg13g2_buf_1 abstract view
.subckt sg13g2_buf_1 A X VDD VSS
.ends

* Black-box entry subcircuit for sg13g2_xor2_1 abstract view
.subckt sg13g2_xor2_1 B A X VDD VSS
.ends

* Black-box entry subcircuit for sg13g2_inv_1 abstract view
.subckt sg13g2_inv_1 VDD Y A VSS
.ends

* Black-box entry subcircuit for sg13g2_xnor2_1 abstract view
.subckt sg13g2_xnor2_1 Y A B VDD VSS
.ends

* Black-box entry subcircuit for sg13g2_and2_1 abstract view
.subckt sg13g2_and2_1 A B X VDD VSS
.ends

* Black-box entry subcircuit for sg13g2_o21ai_1 abstract view
.subckt sg13g2_o21ai_1 B1 VDD Y VSS A1 A2
.ends

* Black-box entry subcircuit for sg13g2_a21oi_1 abstract view
.subckt sg13g2_a21oi_1 VSS VDD A1 A2 Y B1
.ends

* Black-box entry subcircuit for sg13g2_nand2b_1 abstract view
.subckt sg13g2_nand2b_1 Y B A_N VDD VSS
.ends

* Black-box entry subcircuit for sg13g2_nor2_1 abstract view
.subckt sg13g2_nor2_1 A B Y VDD VSS
.ends

* Black-box entry subcircuit for sg13g2_a221oi_1 abstract view
.subckt sg13g2_a221oi_1 VDD VSS B2 C1 B1 A1 Y A2
.ends

* Black-box entry subcircuit for sg13g2_tielo abstract view
.subckt sg13g2_tielo VDD VSS L_LO
.ends

* Black-box entry subcircuit for sg13g2_or2_1 abstract view
.subckt sg13g2_or2_1 VSS VDD X B A
.ends

* Black-box entry subcircuit for sg13g2_buf_2 abstract view
.subckt sg13g2_buf_2 A X VDD VSS
.ends

* Black-box entry subcircuit for sg13g2_a21oi_2 abstract view
.subckt sg13g2_a21oi_2 VSS VDD B1 Y A2 A1
.ends

.subckt heichips25_example_large VGND VPWR clk ena rst_n ui_in[0] ui_in[1] ui_in[2]
+ ui_in[3] ui_in[4] ui_in[5] ui_in[6] ui_in[7] uio_in[0] uio_in[1] uio_in[2] uio_in[3]
+ uio_in[4] uio_in[5] uio_in[6] uio_in[7] uio_oe[0] uio_oe[1] uio_oe[2] uio_oe[3]
+ uio_oe[4] uio_oe[5] uio_oe[6] uio_oe[7] uio_out[0] uio_out[1] uio_out[2] uio_out[3]
+ uio_out[4] uio_out[5] uio_out[6] uio_out[7] uo_out[0] uo_out[1] uo_out[2] uo_out[3]
+ uo_out[4] uo_out[5] uo_out[6] uo_out[7]
XFILLER_95_851 VPWR VGND sg13g2_decap_8
XFILLER_67_553 VPWR VGND sg13g2_decap_8
XFILLER_94_350 VPWR VGND sg13g2_decap_8
XFILLER_27_417 VPWR VGND sg13g2_decap_8
XFILLER_39_277 VPWR VGND sg13g2_decap_8
XFILLER_54_214 VPWR VGND sg13g2_decap_8
XFILLER_82_567 VPWR VGND sg13g2_decap_8
XFILLER_70_707 VPWR VGND sg13g2_decap_8
XFILLER_36_973 VPWR VGND sg13g2_decap_8
XFILLER_63_770 VPWR VGND sg13g2_decap_8
XFILLER_51_921 VPWR VGND sg13g2_decap_8
XFILLER_23_623 VPWR VGND sg13g2_decap_8
XFILLER_35_483 VPWR VGND sg13g2_decap_8
XFILLER_62_280 VPWR VGND sg13g2_decap_8
XFILLER_50_420 VPWR VGND sg13g2_decap_8
XFILLER_51_998 VPWR VGND sg13g2_decap_8
XFILLER_22_144 VPWR VGND sg13g2_decap_8
XFILLER_50_497 VPWR VGND sg13g2_decap_8
XFILLER_105_945 VPWR VGND sg13g2_decap_8
XFILLER_104_455 VPWR VGND sg13g2_decap_8
XFILLER_89_133 VPWR VGND sg13g2_decap_8
XFILLER_78_818 VPWR VGND sg13g2_decap_8
XFILLER_86_851 VPWR VGND sg13g2_decap_8
XFILLER_100_672 VPWR VGND sg13g2_decap_8
XFILLER_85_350 VPWR VGND sg13g2_decap_8
XFILLER_73_501 VPWR VGND sg13g2_decap_8
XFILLER_58_553 VPWR VGND sg13g2_decap_8
XFILLER_46_704 VPWR VGND sg13g2_decap_8
XFILLER_18_406 VPWR VGND sg13g2_decap_8
XFILLER_93_47 VPWR VGND sg13g2_decap_8
XFILLER_45_203 VPWR VGND sg13g2_decap_8
XFILLER_73_578 VPWR VGND sg13g2_decap_8
XFILLER_61_718 VPWR VGND sg13g2_decap_8
XFILLER_60_228 VPWR VGND sg13g2_decap_8
XFILLER_54_781 VPWR VGND sg13g2_decap_8
XFILLER_42_921 VPWR VGND sg13g2_decap_8
XFILLER_14_623 VPWR VGND sg13g2_decap_8
XFILLER_26_63 VPWR VGND sg13g2_decap_8
XFILLER_26_483 VPWR VGND sg13g2_decap_8
XFILLER_27_984 VPWR VGND sg13g2_decap_8
XFILLER_53_280 VPWR VGND sg13g2_decap_8
XFILLER_13_133 VPWR VGND sg13g2_decap_8
XFILLER_41_420 VPWR VGND sg13g2_decap_8
XFILLER_42_998 VPWR VGND sg13g2_decap_8
XFILLER_9_126 VPWR VGND sg13g2_decap_8
XFILLER_41_497 VPWR VGND sg13g2_decap_8
XFILLER_42_95 VPWR VGND sg13g2_decap_8
XFILLER_10_851 VPWR VGND sg13g2_decap_8
XFILLER_6_833 VPWR VGND sg13g2_decap_8
XFILLER_5_354 VPWR VGND sg13g2_decap_8
XFILLER_96_637 VPWR VGND sg13g2_decap_8
XFILLER_68_306 VPWR VGND sg13g2_decap_8
XFILLER_3_56 VPWR VGND sg13g2_decap_8
XFILLER_1_560 VPWR VGND sg13g2_decap_8
XFILLER_77_840 VPWR VGND sg13g2_decap_8
XFILLER_95_158 VPWR VGND sg13g2_decap_8
XFILLER_76_361 VPWR VGND sg13g2_decap_8
XFILLER_67_70 VPWR VGND sg13g2_decap_8
XFILLER_64_501 VPWR VGND sg13g2_decap_8
XFILLER_49_564 VPWR VGND sg13g2_decap_8
XFILLER_37_704 VPWR VGND sg13g2_decap_8
XFILLER_36_203 VPWR VGND sg13g2_decap_8
XFILLER_92_854 VPWR VGND sg13g2_decap_8
XFILLER_64_578 VPWR VGND sg13g2_decap_8
XFILLER_52_707 VPWR VGND sg13g2_decap_8
XFILLER_18_973 VPWR VGND sg13g2_decap_8
XFILLER_91_364 VPWR VGND sg13g2_decap_8
XFILLER_51_228 VPWR VGND sg13g2_decap_8
XFILLER_45_770 VPWR VGND sg13g2_decap_8
XFILLER_33_910 VPWR VGND sg13g2_decap_8
XFILLER_44_291 VPWR VGND sg13g2_decap_8
XFILLER_17_494 VPWR VGND sg13g2_decap_8
XFILLER_32_431 VPWR VGND sg13g2_decap_8
XFILLER_33_987 VPWR VGND sg13g2_decap_8
XFILLER_60_795 VPWR VGND sg13g2_decap_8
XFILLER_20_648 VPWR VGND sg13g2_decap_8
XFILLER_9_693 VPWR VGND sg13g2_decap_8
XFILLER_99_420 VPWR VGND sg13g2_decap_8
XFILLER_99_497 VPWR VGND sg13g2_decap_8
XFILLER_87_637 VPWR VGND sg13g2_decap_8
XFILLER_59_306 VPWR VGND sg13g2_decap_8
XFILLER_102_959 VPWR VGND sg13g2_decap_8
XFILLER_101_469 VPWR VGND sg13g2_decap_8
XFILLER_86_158 VPWR VGND sg13g2_decap_8
XFILLER_74_309 VPWR VGND sg13g2_decap_8
XFILLER_68_873 VPWR VGND sg13g2_decap_8
XFILLER_67_350 VPWR VGND sg13g2_decap_8
XFILLER_27_214 VPWR VGND sg13g2_decap_8
XFILLER_103_35 VPWR VGND sg13g2_decap_8
XFILLER_83_865 VPWR VGND sg13g2_decap_8
XFILLER_55_567 VPWR VGND sg13g2_decap_8
XFILLER_43_707 VPWR VGND sg13g2_decap_8
XFILLER_82_364 VPWR VGND sg13g2_decap_8
XFILLER_70_504 VPWR VGND sg13g2_decap_8
XFILLER_63_28 VPWR VGND sg13g2_decap_8
XFILLER_42_228 VPWR VGND sg13g2_decap_8
XFILLER_24_921 VPWR VGND sg13g2_decap_8
XFILLER_36_770 VPWR VGND sg13g2_decap_8
XFILLER_23_420 VPWR VGND sg13g2_decap_8
XFILLER_35_280 VPWR VGND sg13g2_decap_8
XFILLER_24_998 VPWR VGND sg13g2_decap_8
XFILLER_51_795 VPWR VGND sg13g2_decap_8
XFILLER_50_294 VPWR VGND sg13g2_decap_8
XFILLER_11_637 VPWR VGND sg13g2_decap_8
XFILLER_23_497 VPWR VGND sg13g2_decap_8
XFILLER_10_158 VPWR VGND sg13g2_decap_8
XFILLER_12_32 VPWR VGND sg13g2_decap_8
XFILLER_88_25 VPWR VGND sg13g2_decap_8
XFILLER_3_847 VPWR VGND sg13g2_decap_8
XFILLER_105_742 VPWR VGND sg13g2_decap_8
XFILLER_5_4 VPWR VGND sg13g2_decap_8
XFILLER_104_252 VPWR VGND sg13g2_decap_8
XFILLER_78_615 VPWR VGND sg13g2_decap_8
XFILLER_2_368 VPWR VGND sg13g2_decap_8
XFILLER_77_147 VPWR VGND sg13g2_decap_8
XFILLER_93_607 VPWR VGND sg13g2_decap_8
XFILLER_59_873 VPWR VGND sg13g2_decap_8
XFILLER_58_350 VPWR VGND sg13g2_decap_8
XFILLER_46_501 VPWR VGND sg13g2_decap_8
XFILLER_18_203 VPWR VGND sg13g2_decap_8
XFILLER_74_876 VPWR VGND sg13g2_decap_8
XFILLER_73_375 VPWR VGND sg13g2_decap_8
XFILLER_61_515 VPWR VGND sg13g2_decap_8
XFILLER_46_578 VPWR VGND sg13g2_decap_8
XFILLER_15_921 VPWR VGND sg13g2_decap_8
XFILLER_27_781 VPWR VGND sg13g2_decap_8
XFILLER_33_217 VPWR VGND sg13g2_decap_8
XFILLER_34_718 VPWR VGND sg13g2_decap_8
XFILLER_37_95 VPWR VGND sg13g2_decap_8
XFILLER_14_420 VPWR VGND sg13g2_decap_8
XFILLER_26_280 VPWR VGND sg13g2_decap_8
XFILLER_15_998 VPWR VGND sg13g2_decap_8
XFILLER_18_1015 VPWR VGND sg13g2_decap_8
XFILLER_30_924 VPWR VGND sg13g2_decap_8
XFILLER_42_795 VPWR VGND sg13g2_decap_8
XFILLER_14_497 VPWR VGND sg13g2_decap_8
XFILLER_41_294 VPWR VGND sg13g2_decap_8
XFILLER_6_630 VPWR VGND sg13g2_decap_8
XFILLER_5_151 VPWR VGND sg13g2_decap_8
XFILLER_97_924 VPWR VGND sg13g2_decap_8
XFILLER_68_103 VPWR VGND sg13g2_decap_8
XFILLER_96_434 VPWR VGND sg13g2_decap_8
XFILLER_69_659 VPWR VGND sg13g2_decap_8
XFILLER_25_1008 VPWR VGND sg13g2_decap_8
XFILLER_49_361 VPWR VGND sg13g2_decap_8
XFILLER_37_501 VPWR VGND sg13g2_decap_8
XFILLER_92_651 VPWR VGND sg13g2_decap_8
XFILLER_65_854 VPWR VGND sg13g2_decap_8
XFILLER_25_707 VPWR VGND sg13g2_decap_8
XFILLER_91_161 VPWR VGND sg13g2_decap_8
XFILLER_64_375 VPWR VGND sg13g2_decap_8
XFILLER_52_504 VPWR VGND sg13g2_decap_8
XFILLER_18_770 VPWR VGND sg13g2_decap_8
XFILLER_37_578 VPWR VGND sg13g2_decap_8
XFILLER_80_868 VPWR VGND sg13g2_decap_8
XFILLER_17_291 VPWR VGND sg13g2_decap_8
XFILLER_24_228 VPWR VGND sg13g2_decap_8
XFILLER_71_1028 VPWR VGND sg13g2_fill_1
XFILLER_60_592 VPWR VGND sg13g2_decap_8
XFILLER_21_924 VPWR VGND sg13g2_decap_8
XFILLER_33_784 VPWR VGND sg13g2_decap_8
XFILLER_20_445 VPWR VGND sg13g2_decap_8
XFILLER_9_490 VPWR VGND sg13g2_decap_8
XFILLER_106_539 VPWR VGND sg13g2_decap_8
XFILLER_88_935 VPWR VGND sg13g2_decap_8
XFILLER_58_28 VPWR VGND sg13g2_decap_8
XFILLER_102_756 VPWR VGND sg13g2_decap_8
XFILLER_99_294 VPWR VGND sg13g2_decap_8
XFILLER_87_434 VPWR VGND sg13g2_decap_8
XFILLER_101_266 VPWR VGND sg13g2_decap_8
XFILLER_74_106 VPWR VGND sg13g2_decap_8
XFILLER_68_670 VPWR VGND sg13g2_decap_8
XFILLER_74_49 VPWR VGND sg13g2_decap_4
XFILLER_71_802 VPWR VGND sg13g2_decap_8
XFILLER_56_865 VPWR VGND sg13g2_decap_8
XFILLER_16_707 VPWR VGND sg13g2_decap_8
XFILLER_28_567 VPWR VGND sg13g2_decap_8
XFILLER_83_662 VPWR VGND sg13g2_decap_8
XFILLER_82_161 VPWR VGND sg13g2_decap_8
XFILLER_70_301 VPWR VGND sg13g2_decap_8
XFILLER_55_364 VPWR VGND sg13g2_decap_8
XFILLER_43_504 VPWR VGND sg13g2_decap_8
XFILLER_15_228 VPWR VGND sg13g2_decap_8
XFILLER_71_879 VPWR VGND sg13g2_decap_8
XFILLER_70_378 VPWR VGND sg13g2_decap_8
XFILLER_51_592 VPWR VGND sg13g2_decap_8
XFILLER_12_935 VPWR VGND sg13g2_decap_8
XFILLER_24_795 VPWR VGND sg13g2_decap_8
XFILLER_8_917 VPWR VGND sg13g2_decap_8
XFILLER_11_434 VPWR VGND sg13g2_decap_8
XFILLER_23_42 VPWR VGND sg13g2_decap_8
XFILLER_23_294 VPWR VGND sg13g2_decap_8
XFILLER_7_438 VPWR VGND sg13g2_decap_8
XFILLER_99_35 VPWR VGND sg13g2_decap_8
XFILLER_48_1008 VPWR VGND sg13g2_decap_8
XFILLER_3_644 VPWR VGND sg13g2_decap_8
XFILLER_79_935 VPWR VGND sg13g2_decap_8
XFILLER_78_412 VPWR VGND sg13g2_decap_8
XFILLER_2_165 VPWR VGND sg13g2_decap_8
XFILLER_93_404 VPWR VGND sg13g2_decap_8
XFILLER_94_938 VPWR VGND sg13g2_decap_8
XFILLER_78_489 VPWR VGND sg13g2_decap_8
XFILLER_66_629 VPWR VGND sg13g2_decap_8
XFILLER_59_670 VPWR VGND sg13g2_decap_8
XFILLER_47_854 VPWR VGND sg13g2_decap_8
XFILLER_0_35 VPWR VGND sg13g2_decap_8
XFILLER_74_673 VPWR VGND sg13g2_decap_8
XFILLER_46_375 VPWR VGND sg13g2_decap_8
XFILLER_19_567 VPWR VGND sg13g2_decap_8
XFILLER_34_515 VPWR VGND sg13g2_decap_8
XFILLER_73_172 VPWR VGND sg13g2_decap_8
XFILLER_64_60 VPWR VGND sg13g2_decap_8
XFILLER_62_868 VPWR VGND sg13g2_decap_8
XFILLER_61_312 VPWR VGND sg13g2_decap_8
XFILLER_61_389 VPWR VGND sg13g2_decap_8
XFILLER_42_592 VPWR VGND sg13g2_decap_8
XFILLER_15_795 VPWR VGND sg13g2_decap_8
XFILLER_30_721 VPWR VGND sg13g2_decap_8
XFILLER_9_77 VPWR VGND sg13g2_decap_8
XFILLER_14_294 VPWR VGND sg13g2_decap_8
XFILLER_80_70 VPWR VGND sg13g2_decap_8
XFILLER_30_798 VPWR VGND sg13g2_decap_8
XFILLER_31_1001 VPWR VGND sg13g2_decap_8
XFILLER_97_721 VPWR VGND sg13g2_decap_8
XFILLER_96_231 VPWR VGND sg13g2_decap_8
XFILLER_69_456 VPWR VGND sg13g2_decap_8
XFILLER_97_798 VPWR VGND sg13g2_decap_8
XFILLER_85_938 VPWR VGND sg13g2_decap_8
XFILLER_84_448 VPWR VGND sg13g2_decap_8
XFILLER_65_651 VPWR VGND sg13g2_decap_8
XFILLER_38_854 VPWR VGND sg13g2_decap_8
XFILLER_93_971 VPWR VGND sg13g2_decap_8
XFILLER_71_109 VPWR VGND sg13g2_decap_8
X_49_ _17_ _13_ _15_ VPWR VGND sg13g2_nand2_1
XFILLER_52_301 VPWR VGND sg13g2_decap_8
XFILLER_25_504 VPWR VGND sg13g2_decap_8
XFILLER_37_375 VPWR VGND sg13g2_decap_8
XFILLER_64_172 VPWR VGND sg13g2_decap_8
XFILLER_53_868 VPWR VGND sg13g2_decap_8
XFILLER_80_665 VPWR VGND sg13g2_decap_8
XFILLER_52_378 VPWR VGND sg13g2_decap_8
XFILLER_40_518 VPWR VGND sg13g2_decap_8
XFILLER_100_14 VPWR VGND sg13g2_decap_8
XFILLER_21_721 VPWR VGND sg13g2_decap_8
XFILLER_33_581 VPWR VGND sg13g2_decap_8
XFILLER_60_18 VPWR VGND sg13g2_fill_2
XFILLER_20_242 VPWR VGND sg13g2_decap_8
XFILLER_21_798 VPWR VGND sg13g2_decap_8
XFILLER_106_336 VPWR VGND sg13g2_decap_8
XFILLER_69_49 VPWR VGND sg13g2_decap_8
XFILLER_88_732 VPWR VGND sg13g2_decap_8
XFILLER_102_553 VPWR VGND sg13g2_decap_8
XFILLER_87_231 VPWR VGND sg13g2_decap_8
XFILLER_0_658 VPWR VGND sg13g2_decap_8
XFILLER_76_949 VPWR VGND sg13g2_decap_8
XFILLER_75_448 VPWR VGND sg13g2_decap_8
XFILLER_18_42 VPWR VGND sg13g2_decap_8
XFILLER_29_865 VPWR VGND sg13g2_decap_8
XFILLER_56_662 VPWR VGND sg13g2_decap_8
XFILLER_55_161 VPWR VGND sg13g2_decap_8
XFILLER_44_802 VPWR VGND sg13g2_decap_8
XFILLER_43_301 VPWR VGND sg13g2_decap_8
XFILLER_16_504 VPWR VGND sg13g2_decap_8
XFILLER_28_364 VPWR VGND sg13g2_decap_8
XFILLER_71_676 VPWR VGND sg13g2_decap_8
XFILLER_44_879 VPWR VGND sg13g2_decap_8
XFILLER_31_518 VPWR VGND sg13g2_decap_8
XFILLER_70_175 VPWR VGND sg13g2_decap_8
XFILLER_54_1012 VPWR VGND sg13g2_decap_8
XFILLER_43_378 VPWR VGND sg13g2_decap_8
XFILLER_11_231 VPWR VGND sg13g2_decap_8
XFILLER_12_732 VPWR VGND sg13g2_decap_8
XFILLER_24_592 VPWR VGND sg13g2_decap_8
XFILLER_34_74 VPWR VGND sg13g2_decap_8
XFILLER_8_714 VPWR VGND sg13g2_decap_8
XFILLER_7_235 VPWR VGND sg13g2_decap_8
XFILLER_50_84 VPWR VGND sg13g2_decap_8
XFILLER_4_931 VPWR VGND sg13g2_decap_8
XFILLER_98_529 VPWR VGND sg13g2_decap_8
XFILLER_3_441 VPWR VGND sg13g2_decap_8
XFILLER_79_732 VPWR VGND sg13g2_decap_8
XFILLER_59_71 VPWR VGND sg13g2_fill_1
XFILLER_59_60 VPWR VGND sg13g2_decap_8
XFILLER_61_1005 VPWR VGND sg13g2_decap_8
XFILLER_94_735 VPWR VGND sg13g2_decap_8
XFILLER_93_201 VPWR VGND sg13g2_decap_8
XFILLER_78_286 VPWR VGND sg13g2_decap_8
XFILLER_67_938 VPWR VGND sg13g2_decap_8
XFILLER_66_426 VPWR VGND sg13g2_decap_8
XFILLER_93_278 VPWR VGND sg13g2_decap_8
XFILLER_75_70 VPWR VGND sg13g2_decap_8
XFILLER_47_651 VPWR VGND sg13g2_decap_8
XFILLER_19_364 VPWR VGND sg13g2_decap_8
XFILLER_74_470 VPWR VGND sg13g2_decap_8
XFILLER_46_172 VPWR VGND sg13g2_decap_8
XFILLER_34_312 VPWR VGND sg13g2_decap_8
XFILLER_90_963 VPWR VGND sg13g2_decap_8
XFILLER_62_665 VPWR VGND sg13g2_decap_8
XFILLER_50_805 VPWR VGND sg13g2_decap_8
XFILLER_35_868 VPWR VGND sg13g2_decap_8
XFILLER_61_186 VPWR VGND sg13g2_decap_8
XFILLER_22_529 VPWR VGND sg13g2_decap_8
XFILLER_34_389 VPWR VGND sg13g2_decap_8
XFILLER_91_91 VPWR VGND sg13g2_decap_8
XFILLER_15_592 VPWR VGND sg13g2_decap_8
XFILLER_30_595 VPWR VGND sg13g2_decap_8
XFILLER_89_518 VPWR VGND sg13g2_decap_8
XFILLER_69_253 VPWR VGND sg13g2_decap_8
XFILLER_97_595 VPWR VGND sg13g2_decap_8
XFILLER_85_735 VPWR VGND sg13g2_decap_8
XFILLER_58_938 VPWR VGND sg13g2_decap_8
XFILLER_84_245 VPWR VGND sg13g2_decap_8
XFILLER_57_448 VPWR VGND sg13g2_decap_8
XFILLER_77_1001 VPWR VGND sg13g2_decap_8
XFILLER_44_109 VPWR VGND sg13g2_decap_8
XFILLER_38_651 VPWR VGND sg13g2_decap_8
XFILLER_66_993 VPWR VGND sg13g2_decap_8
XFILLER_25_301 VPWR VGND sg13g2_decap_8
XFILLER_37_172 VPWR VGND sg13g2_decap_8
XFILLER_81_963 VPWR VGND sg13g2_decap_8
XFILLER_80_462 VPWR VGND sg13g2_decap_8
XFILLER_53_665 VPWR VGND sg13g2_decap_8
XFILLER_41_805 VPWR VGND sg13g2_decap_8
XFILLER_26_868 VPWR VGND sg13g2_decap_8
XFILLER_52_175 VPWR VGND sg13g2_decap_8
XFILLER_13_518 VPWR VGND sg13g2_decap_8
XFILLER_25_378 VPWR VGND sg13g2_decap_8
XFILLER_40_315 VPWR VGND sg13g2_decap_8
XFILLER_71_39 VPWR VGND sg13g2_decap_8
XFILLER_21_595 VPWR VGND sg13g2_decap_8
XFILLER_5_739 VPWR VGND sg13g2_decap_8
XFILLER_106_133 VPWR VGND sg13g2_decap_8
XFILLER_4_238 VPWR VGND sg13g2_decap_8
XFILLER_20_32 VPWR VGND sg13g2_decap_8
XFILLER_96_14 VPWR VGND sg13g2_decap_8
XFILLER_1_945 VPWR VGND sg13g2_decap_8
XFILLER_103_840 VPWR VGND sg13g2_decap_8
XFILLER_0_455 VPWR VGND sg13g2_decap_8
XFILLER_102_350 VPWR VGND sg13g2_decap_8
XFILLER_49_949 VPWR VGND sg13g2_decap_8
XFILLER_76_746 VPWR VGND sg13g2_decap_8
XFILLER_75_245 VPWR VGND sg13g2_decap_8
XFILLER_48_448 VPWR VGND sg13g2_decap_8
XFILLER_29_74 VPWR VGND sg13g2_decap_8
XFILLER_17_802 VPWR VGND sg13g2_decap_8
XFILLER_21_1022 VPWR VGND sg13g2_decap_8
XFILLER_29_662 VPWR VGND sg13g2_decap_8
XFILLER_91_749 VPWR VGND sg13g2_decap_8
XFILLER_16_301 VPWR VGND sg13g2_decap_8
XFILLER_28_161 VPWR VGND sg13g2_decap_8
XFILLER_72_952 VPWR VGND sg13g2_decap_8
XFILLER_44_676 VPWR VGND sg13g2_decap_8
XFILLER_17_879 VPWR VGND sg13g2_decap_8
XFILLER_32_816 VPWR VGND sg13g2_decap_8
XFILLER_71_473 VPWR VGND sg13g2_decap_8
XFILLER_45_84 VPWR VGND sg13g2_decap_8
XFILLER_43_175 VPWR VGND sg13g2_decap_8
XFILLER_16_378 VPWR VGND sg13g2_decap_8
XFILLER_31_315 VPWR VGND sg13g2_decap_8
XFILLER_8_511 VPWR VGND sg13g2_decap_8
XFILLER_40_882 VPWR VGND sg13g2_decap_8
XFILLER_8_588 VPWR VGND sg13g2_decap_8
XFILLER_6_56 VPWR VGND sg13g2_decap_8
XFILLER_99_805 VPWR VGND sg13g2_decap_8
XFILLER_98_326 VPWR VGND sg13g2_decap_8
XFILLER_67_735 VPWR VGND sg13g2_decap_8
XFILLER_20_4 VPWR VGND sg13g2_decap_8
XFILLER_94_532 VPWR VGND sg13g2_decap_8
XFILLER_66_223 VPWR VGND sg13g2_decap_8
XFILLER_39_459 VPWR VGND sg13g2_decap_8
XFILLER_82_749 VPWR VGND sg13g2_decap_8
XFILLER_19_161 VPWR VGND sg13g2_decap_8
XFILLER_90_760 VPWR VGND sg13g2_decap_8
XFILLER_63_952 VPWR VGND sg13g2_decap_8
XFILLER_23_805 VPWR VGND sg13g2_decap_8
XFILLER_35_665 VPWR VGND sg13g2_decap_8
XFILLER_62_462 VPWR VGND sg13g2_decap_8
XFILLER_50_602 VPWR VGND sg13g2_decap_8
XFILLER_96_0 VPWR VGND sg13g2_decap_8
XFILLER_22_326 VPWR VGND sg13g2_decap_8
XFILLER_34_186 VPWR VGND sg13g2_decap_8
XFILLER_50_679 VPWR VGND sg13g2_decap_8
XFILLER_31_882 VPWR VGND sg13g2_decap_8
XFILLER_30_392 VPWR VGND sg13g2_decap_8
XFILLER_104_637 VPWR VGND sg13g2_decap_8
XFILLER_89_315 VPWR VGND sg13g2_decap_8
XFILLER_106_35 VPWR VGND sg13g2_decap_8
XFILLER_103_147 VPWR VGND sg13g2_decap_8
XFILLER_98_893 VPWR VGND sg13g2_decap_8
XFILLER_58_735 VPWR VGND sg13g2_decap_8
XFILLER_100_854 VPWR VGND sg13g2_decap_8
XFILLER_97_392 VPWR VGND sg13g2_decap_8
XFILLER_85_532 VPWR VGND sg13g2_decap_8
XFILLER_57_245 VPWR VGND sg13g2_decap_8
XFILLER_17_109 VPWR VGND sg13g2_decap_8
XFILLER_66_790 VPWR VGND sg13g2_decap_8
XFILLER_81_760 VPWR VGND sg13g2_decap_8
XFILLER_72_259 VPWR VGND sg13g2_decap_8
XFILLER_54_963 VPWR VGND sg13g2_decap_8
XFILLER_14_805 VPWR VGND sg13g2_decap_8
XFILLER_26_665 VPWR VGND sg13g2_decap_8
XFILLER_82_49 VPWR VGND sg13g2_decap_8
XFILLER_53_462 VPWR VGND sg13g2_decap_8
XFILLER_41_602 VPWR VGND sg13g2_decap_8
XFILLER_13_315 VPWR VGND sg13g2_decap_8
XFILLER_15_32 VPWR VGND sg13g2_decap_8
XFILLER_25_175 VPWR VGND sg13g2_decap_8
XFILLER_40_112 VPWR VGND sg13g2_decap_8
XFILLER_41_679 VPWR VGND sg13g2_decap_8
XFILLER_9_308 VPWR VGND sg13g2_decap_8
XFILLER_51_1026 VPWR VGND sg13g2_fill_2
XFILLER_22_893 VPWR VGND sg13g2_decap_8
XFILLER_40_189 VPWR VGND sg13g2_decap_8
XFILLER_21_392 VPWR VGND sg13g2_decap_8
XFILLER_31_42 VPWR VGND sg13g2_decap_8
XFILLER_5_536 VPWR VGND sg13g2_decap_8
Xoutput20 net20 uo_out[3] VPWR VGND sg13g2_buf_1
XFILLER_96_819 VPWR VGND sg13g2_decap_8
XFILLER_1_742 VPWR VGND sg13g2_decap_8
XFILLER_89_882 VPWR VGND sg13g2_decap_8
XFILLER_0_252 VPWR VGND sg13g2_decap_8
XFILLER_76_543 VPWR VGND sg13g2_decap_8
XFILLER_49_746 VPWR VGND sg13g2_decap_8
XFILLER_48_245 VPWR VGND sg13g2_decap_8
XFILLER_91_546 VPWR VGND sg13g2_decap_8
XFILLER_63_259 VPWR VGND sg13g2_decap_8
XFILLER_60_900 VPWR VGND sg13g2_decap_8
XFILLER_45_952 VPWR VGND sg13g2_decap_8
XFILLER_44_473 VPWR VGND sg13g2_decap_8
XFILLER_16_175 VPWR VGND sg13g2_decap_8
XFILLER_17_676 VPWR VGND sg13g2_decap_8
XFILLER_32_613 VPWR VGND sg13g2_decap_8
XFILLER_71_270 VPWR VGND sg13g2_decap_8
XFILLER_31_112 VPWR VGND sg13g2_decap_8
XFILLER_60_977 VPWR VGND sg13g2_decap_8
XFILLER_13_882 VPWR VGND sg13g2_decap_8
XFILLER_31_189 VPWR VGND sg13g2_decap_8
XFILLER_9_875 VPWR VGND sg13g2_decap_8
XFILLER_68_4 VPWR VGND sg13g2_decap_8
XFILLER_8_385 VPWR VGND sg13g2_decap_8
XFILLER_99_602 VPWR VGND sg13g2_decap_8
XFILLER_67_1022 VPWR VGND sg13g2_decap_8
XFILLER_99_679 VPWR VGND sg13g2_decap_8
XFILLER_98_123 VPWR VGND sg13g2_decap_8
XFILLER_87_819 VPWR VGND sg13g2_decap_8
XFILLER_95_830 VPWR VGND sg13g2_decap_8
XFILLER_67_532 VPWR VGND sg13g2_decap_8
XFILLER_11_0 VPWR VGND sg13g2_decap_8
XFILLER_39_256 VPWR VGND sg13g2_decap_8
XFILLER_55_749 VPWR VGND sg13g2_decap_8
XFILLER_82_546 VPWR VGND sg13g2_decap_8
XFILLER_36_952 VPWR VGND sg13g2_decap_8
XFILLER_51_900 VPWR VGND sg13g2_decap_8
XFILLER_23_602 VPWR VGND sg13g2_decap_8
XFILLER_35_462 VPWR VGND sg13g2_decap_8
XFILLER_22_123 VPWR VGND sg13g2_decap_8
XFILLER_51_977 VPWR VGND sg13g2_decap_8
XFILLER_50_476 VPWR VGND sg13g2_decap_8
XFILLER_11_819 VPWR VGND sg13g2_decap_8
XFILLER_23_679 VPWR VGND sg13g2_decap_8
XFILLER_105_924 VPWR VGND sg13g2_decap_8
XFILLER_89_112 VPWR VGND sg13g2_decap_8
XFILLER_104_434 VPWR VGND sg13g2_decap_8
XFILLER_81_1019 VPWR VGND sg13g2_decap_8
XFILLER_89_189 VPWR VGND sg13g2_decap_8
XFILLER_77_329 VPWR VGND sg13g2_decap_8
XFILLER_77_49 VPWR VGND sg13g2_decap_8
XFILLER_98_690 VPWR VGND sg13g2_decap_8
XFILLER_86_830 VPWR VGND sg13g2_decap_8
XFILLER_58_532 VPWR VGND sg13g2_decap_8
XFILLER_100_651 VPWR VGND sg13g2_decap_8
XFILLER_93_26 VPWR VGND sg13g2_decap_8
XFILLER_73_557 VPWR VGND sg13g2_decap_8
XFILLER_45_259 VPWR VGND sg13g2_decap_8
XFILLER_26_42 VPWR VGND sg13g2_decap_8
XFILLER_27_963 VPWR VGND sg13g2_decap_8
XFILLER_60_207 VPWR VGND sg13g2_decap_8
XFILLER_54_760 VPWR VGND sg13g2_decap_8
XFILLER_42_900 VPWR VGND sg13g2_decap_8
XFILLER_14_602 VPWR VGND sg13g2_decap_8
XFILLER_26_462 VPWR VGND sg13g2_decap_8
XFILLER_13_112 VPWR VGND sg13g2_decap_8
XFILLER_42_977 VPWR VGND sg13g2_decap_8
XFILLER_9_105 VPWR VGND sg13g2_decap_8
XFILLER_14_679 VPWR VGND sg13g2_decap_8
XFILLER_41_476 VPWR VGND sg13g2_decap_8
XFILLER_10_830 VPWR VGND sg13g2_decap_8
XFILLER_13_189 VPWR VGND sg13g2_decap_8
XFILLER_42_74 VPWR VGND sg13g2_decap_8
XFILLER_6_812 VPWR VGND sg13g2_decap_8
XFILLER_22_690 VPWR VGND sg13g2_decap_8
XFILLER_5_333 VPWR VGND sg13g2_decap_8
XFILLER_6_889 VPWR VGND sg13g2_decap_8
XFILLER_96_616 VPWR VGND sg13g2_decap_8
XFILLER_3_35 VPWR VGND sg13g2_decap_8
XFILLER_95_137 VPWR VGND sg13g2_decap_8
XFILLER_76_340 VPWR VGND sg13g2_decap_8
XFILLER_49_543 VPWR VGND sg13g2_decap_8
XFILLER_3_1008 VPWR VGND sg13g2_decap_8
XFILLER_97_1015 VPWR VGND sg13g2_decap_8
XFILLER_92_833 VPWR VGND sg13g2_decap_8
XFILLER_77_896 VPWR VGND sg13g2_decap_8
XFILLER_91_343 VPWR VGND sg13g2_decap_8
XFILLER_64_557 VPWR VGND sg13g2_decap_8
XFILLER_18_952 VPWR VGND sg13g2_decap_8
XFILLER_36_259 VPWR VGND sg13g2_decap_8
XFILLER_51_207 VPWR VGND sg13g2_decap_8
XFILLER_17_473 VPWR VGND sg13g2_decap_8
XFILLER_83_81 VPWR VGND sg13g2_decap_8
XFILLER_44_270 VPWR VGND sg13g2_decap_8
XFILLER_32_410 VPWR VGND sg13g2_decap_8
XFILLER_60_774 VPWR VGND sg13g2_decap_8
XFILLER_33_966 VPWR VGND sg13g2_decap_8
XFILLER_20_627 VPWR VGND sg13g2_decap_8
XFILLER_32_487 VPWR VGND sg13g2_decap_8
XFILLER_9_672 VPWR VGND sg13g2_decap_8
XFILLER_8_182 VPWR VGND sg13g2_decap_8
XFILLER_102_938 VPWR VGND sg13g2_decap_8
XFILLER_99_476 VPWR VGND sg13g2_decap_8
XFILLER_87_616 VPWR VGND sg13g2_decap_8
XFILLER_101_448 VPWR VGND sg13g2_decap_8
XFILLER_86_137 VPWR VGND sg13g2_decap_8
XFILLER_68_852 VPWR VGND sg13g2_decap_8
XFILLER_103_14 VPWR VGND sg13g2_decap_8
XFILLER_83_844 VPWR VGND sg13g2_decap_8
XFILLER_28_749 VPWR VGND sg13g2_decap_8
XFILLER_82_343 VPWR VGND sg13g2_decap_8
XFILLER_55_546 VPWR VGND sg13g2_decap_8
XFILLER_42_207 VPWR VGND sg13g2_decap_8
XFILLER_24_900 VPWR VGND sg13g2_decap_8
XFILLER_51_774 VPWR VGND sg13g2_decap_8
XFILLER_24_977 VPWR VGND sg13g2_decap_8
XFILLER_50_273 VPWR VGND sg13g2_decap_8
XFILLER_11_616 VPWR VGND sg13g2_decap_8
XFILLER_23_476 VPWR VGND sg13g2_decap_8
XFILLER_10_137 VPWR VGND sg13g2_decap_8
XFILLER_12_11 VPWR VGND sg13g2_decap_8
XFILLER_6_119 VPWR VGND sg13g2_decap_8
XFILLER_12_88 VPWR VGND sg13g2_decap_8
XFILLER_105_721 VPWR VGND sg13g2_decap_8
XFILLER_3_826 VPWR VGND sg13g2_decap_8
XFILLER_104_231 VPWR VGND sg13g2_decap_8
XFILLER_2_347 VPWR VGND sg13g2_decap_8
XFILLER_105_798 VPWR VGND sg13g2_decap_8
XFILLER_77_126 VPWR VGND sg13g2_decap_8
XFILLER_59_852 VPWR VGND sg13g2_decap_8
XFILLER_19_749 VPWR VGND sg13g2_decap_8
XFILLER_74_855 VPWR VGND sg13g2_decap_8
XFILLER_46_557 VPWR VGND sg13g2_decap_8
XFILLER_18_259 VPWR VGND sg13g2_decap_8
XFILLER_37_74 VPWR VGND sg13g2_decap_8
XFILLER_73_354 VPWR VGND sg13g2_decap_8
XFILLER_15_900 VPWR VGND sg13g2_decap_8
XFILLER_27_760 VPWR VGND sg13g2_decap_8
XFILLER_42_774 VPWR VGND sg13g2_decap_8
XFILLER_15_977 VPWR VGND sg13g2_decap_8
XFILLER_30_903 VPWR VGND sg13g2_decap_8
XFILLER_105_1008 VPWR VGND sg13g2_decap_8
XFILLER_53_84 VPWR VGND sg13g2_decap_8
XFILLER_14_476 VPWR VGND sg13g2_decap_8
XFILLER_41_273 VPWR VGND sg13g2_decap_8
XFILLER_5_130 VPWR VGND sg13g2_decap_8
XFILLER_52_7 VPWR VGND sg13g2_decap_8
XFILLER_6_686 VPWR VGND sg13g2_decap_8
XFILLER_97_903 VPWR VGND sg13g2_decap_8
XFILLER_96_413 VPWR VGND sg13g2_decap_8
XFILLER_69_638 VPWR VGND sg13g2_decap_8
XFILLER_68_159 VPWR VGND sg13g2_decap_8
XFILLER_49_340 VPWR VGND sg13g2_decap_8
XFILLER_77_693 VPWR VGND sg13g2_decap_8
XFILLER_65_833 VPWR VGND sg13g2_decap_8
XFILLER_92_630 VPWR VGND sg13g2_decap_8
X_65_ net9 net1 net17 VPWR VGND sg13g2_xor2_1
XFILLER_37_557 VPWR VGND sg13g2_decap_8
XFILLER_94_91 VPWR VGND sg13g2_decap_8
XFILLER_91_140 VPWR VGND sg13g2_decap_8
XFILLER_64_354 VPWR VGND sg13g2_decap_8
XFILLER_24_207 VPWR VGND sg13g2_decap_8
XFILLER_80_847 VPWR VGND sg13g2_decap_8
XFILLER_17_270 VPWR VGND sg13g2_decap_8
XFILLER_21_903 VPWR VGND sg13g2_decap_8
XFILLER_33_763 VPWR VGND sg13g2_decap_8
XFILLER_60_571 VPWR VGND sg13g2_decap_8
XFILLER_20_424 VPWR VGND sg13g2_decap_8
XFILLER_32_284 VPWR VGND sg13g2_decap_8
XFILLER_106_518 VPWR VGND sg13g2_decap_8
XFILLER_88_914 VPWR VGND sg13g2_decap_8
XFILLER_102_735 VPWR VGND sg13g2_decap_8
XFILLER_99_273 VPWR VGND sg13g2_decap_8
XFILLER_87_413 VPWR VGND sg13g2_decap_8
XFILLER_101_245 VPWR VGND sg13g2_decap_8
XFILLER_59_159 VPWR VGND sg13g2_decap_8
XFILLER_96_980 VPWR VGND sg13g2_decap_8
XFILLER_83_641 VPWR VGND sg13g2_decap_8
XFILLER_74_28 VPWR VGND sg13g2_decap_8
XFILLER_56_844 VPWR VGND sg13g2_decap_8
XFILLER_55_343 VPWR VGND sg13g2_decap_8
XFILLER_28_546 VPWR VGND sg13g2_decap_8
XFILLER_82_140 VPWR VGND sg13g2_decap_8
XFILLER_15_207 VPWR VGND sg13g2_decap_8
XFILLER_71_858 VPWR VGND sg13g2_decap_8
XFILLER_70_357 VPWR VGND sg13g2_decap_8
XFILLER_12_914 VPWR VGND sg13g2_decap_8
XFILLER_51_571 VPWR VGND sg13g2_decap_8
XFILLER_11_413 VPWR VGND sg13g2_decap_8
XFILLER_23_21 VPWR VGND sg13g2_decap_8
XFILLER_23_273 VPWR VGND sg13g2_decap_8
XFILLER_24_774 VPWR VGND sg13g2_decap_8
XFILLER_7_417 VPWR VGND sg13g2_decap_8
XFILLER_99_14 VPWR VGND sg13g2_decap_8
XFILLER_20_991 VPWR VGND sg13g2_decap_8
XFILLER_23_98 VPWR VGND sg13g2_decap_8
XFILLER_3_623 VPWR VGND sg13g2_decap_8
XFILLER_79_914 VPWR VGND sg13g2_decap_8
XFILLER_2_144 VPWR VGND sg13g2_decap_8
XFILLER_105_595 VPWR VGND sg13g2_decap_8
XFILLER_94_917 VPWR VGND sg13g2_decap_8
XFILLER_78_468 VPWR VGND sg13g2_decap_8
XFILLER_66_608 VPWR VGND sg13g2_decap_8
XFILLER_87_980 VPWR VGND sg13g2_decap_8
XFILLER_47_833 VPWR VGND sg13g2_decap_8
XFILLER_48_84 VPWR VGND sg13g2_decap_8
XFILLER_74_652 VPWR VGND sg13g2_decap_8
XFILLER_0_14 VPWR VGND sg13g2_decap_8
XFILLER_19_546 VPWR VGND sg13g2_decap_8
XFILLER_73_151 VPWR VGND sg13g2_decap_8
XFILLER_46_354 VPWR VGND sg13g2_decap_8
XFILLER_62_847 VPWR VGND sg13g2_decap_8
XFILLER_61_368 VPWR VGND sg13g2_decap_8
XFILLER_42_571 VPWR VGND sg13g2_decap_8
XFILLER_14_273 VPWR VGND sg13g2_decap_8
XFILLER_15_774 VPWR VGND sg13g2_decap_8
XFILLER_30_700 VPWR VGND sg13g2_decap_8
XFILLER_9_56 VPWR VGND sg13g2_decap_8
XFILLER_30_777 VPWR VGND sg13g2_decap_8
XFILLER_11_980 VPWR VGND sg13g2_decap_8
XFILLER_7_984 VPWR VGND sg13g2_decap_8
XFILLER_6_483 VPWR VGND sg13g2_decap_8
XFILLER_97_700 VPWR VGND sg13g2_decap_8
XFILLER_89_91 VPWR VGND sg13g2_decap_8
XFILLER_96_210 VPWR VGND sg13g2_decap_8
XFILLER_69_435 VPWR VGND sg13g2_decap_8
XFILLER_97_777 VPWR VGND sg13g2_decap_8
XFILLER_85_917 VPWR VGND sg13g2_decap_8
XFILLER_96_287 VPWR VGND sg13g2_decap_8
XFILLER_84_427 VPWR VGND sg13g2_decap_8
XFILLER_93_950 VPWR VGND sg13g2_decap_8
XFILLER_77_490 VPWR VGND sg13g2_decap_8
XFILLER_65_630 VPWR VGND sg13g2_decap_8
XFILLER_38_833 VPWR VGND sg13g2_decap_8
X_48_ VPWR _16_ _15_ VGND sg13g2_inv_1
XFILLER_64_151 VPWR VGND sg13g2_decap_8
XFILLER_37_354 VPWR VGND sg13g2_decap_8
XFILLER_80_644 VPWR VGND sg13g2_decap_8
XFILLER_53_847 VPWR VGND sg13g2_decap_8
XFILLER_52_357 VPWR VGND sg13g2_decap_8
XFILLER_21_700 VPWR VGND sg13g2_decap_8
XFILLER_33_560 VPWR VGND sg13g2_decap_8
XFILLER_20_221 VPWR VGND sg13g2_decap_8
XFILLER_21_777 VPWR VGND sg13g2_decap_8
XFILLER_20_298 VPWR VGND sg13g2_decap_8
XFILLER_106_315 VPWR VGND sg13g2_decap_8
XFILLER_69_28 VPWR VGND sg13g2_decap_8
XFILLER_88_711 VPWR VGND sg13g2_decap_8
XFILLER_87_210 VPWR VGND sg13g2_decap_8
XFILLER_0_637 VPWR VGND sg13g2_decap_8
XFILLER_102_532 VPWR VGND sg13g2_decap_8
XFILLER_88_788 VPWR VGND sg13g2_decap_8
XFILLER_87_287 VPWR VGND sg13g2_decap_8
XFILLER_85_49 VPWR VGND sg13g2_decap_8
XFILLER_76_928 VPWR VGND sg13g2_decap_8
XFILLER_75_427 VPWR VGND sg13g2_decap_8
XFILLER_56_641 VPWR VGND sg13g2_decap_8
XFILLER_18_21 VPWR VGND sg13g2_decap_8
XFILLER_29_844 VPWR VGND sg13g2_decap_8
XFILLER_55_140 VPWR VGND sg13g2_decap_8
XFILLER_28_343 VPWR VGND sg13g2_decap_8
XFILLER_84_994 VPWR VGND sg13g2_decap_8
XFILLER_44_858 VPWR VGND sg13g2_decap_8
XFILLER_18_98 VPWR VGND sg13g2_decap_8
XFILLER_71_655 VPWR VGND sg13g2_decap_8
XFILLER_70_154 VPWR VGND sg13g2_decap_8
XFILLER_43_357 VPWR VGND sg13g2_decap_8
XFILLER_12_711 VPWR VGND sg13g2_decap_8
XFILLER_24_571 VPWR VGND sg13g2_decap_8
XFILLER_34_53 VPWR VGND sg13g2_decap_8
XFILLER_11_210 VPWR VGND sg13g2_decap_8
XFILLER_15_1019 VPWR VGND sg13g2_decap_8