* NGSPICE file created from W_TT_IF2.ext - technology: ihp-sg13g2

* Black-box entry subcircuit for sg13g2_inv_1 abstract view
.subckt sg13g2_inv_1 VDD Y A VSS
.ends

* Black-box entry subcircuit for sg13g2_fill_1 abstract view
.subckt sg13g2_fill_1 VDD VSS
.ends

* Black-box entry subcircuit for sg13g2_decap_8 abstract view
.subckt sg13g2_decap_8 VDD VSS
.ends

* Black-box entry subcircuit for sg13g2_fill_2 abstract view
.subckt sg13g2_fill_2 VDD VSS
.ends

* Black-box entry subcircuit for sg13g2_dlhq_1 abstract view
.subckt sg13g2_dlhq_1 D GATE Q VDD VSS
.ends

* Black-box entry subcircuit for sg13g2_buf_1 abstract view
.subckt sg13g2_buf_1 A X VDD VSS
.ends

* Black-box entry subcircuit for sg13g2_mux4_1 abstract view
.subckt sg13g2_mux4_1 S0 A0 A1 A2 A3 S1 X VDD VSS
.ends

* Black-box entry subcircuit for sg13g2_decap_4 abstract view
.subckt sg13g2_decap_4 VDD VSS
.ends

* Black-box entry subcircuit for sg13g2_nor2b_1 abstract view
.subckt sg13g2_nor2b_1 A B_N Y VDD VSS
.ends

* Black-box entry subcircuit for sg13g2_a21oi_1 abstract view
.subckt sg13g2_a21oi_1 VSS VDD A1 A2 Y B1
.ends

* Black-box entry subcircuit for sg13g2_nand2b_1 abstract view
.subckt sg13g2_nand2b_1 Y B A_N VDD VSS
.ends

* Black-box entry subcircuit for sg13g2_mux2_1 abstract view
.subckt sg13g2_mux2_1 A0 A1 S X VDD VSS
.ends

* Black-box entry subcircuit for sg13g2_and2_1 abstract view
.subckt sg13g2_and2_1 A B X VDD VSS
.ends

* Black-box entry subcircuit for sg13g2_antennanp abstract view
.subckt sg13g2_antennanp VDD VSS A
.ends

* Black-box entry subcircuit for sg13g2_nor3_1 abstract view
.subckt sg13g2_nor3_1 A B C Y VDD VSS
.ends

* Black-box entry subcircuit for sg13g2_a221oi_1 abstract view
.subckt sg13g2_a221oi_1 VDD VSS B2 C1 B1 A1 Y A2
.ends

* Black-box entry subcircuit for sg13g2_nand3_1 abstract view
.subckt sg13g2_nand3_1 B C A Y VDD VSS
.ends

* Black-box entry subcircuit for sg13g2_nand2_1 abstract view
.subckt sg13g2_nand2_1 Y A B VDD VSS
.ends

* Black-box entry subcircuit for sg13g2_nor2_1 abstract view
.subckt sg13g2_nor2_1 A B Y VDD VSS
.ends

* Black-box entry subcircuit for sg13g2_or2_1 abstract view
.subckt sg13g2_or2_1 VSS VDD X B A
.ends

* Black-box entry subcircuit for sg13g2_o21ai_1 abstract view
.subckt sg13g2_o21ai_1 B1 VDD Y VSS A1 A2
.ends

* Black-box entry subcircuit for sg13g2_buf_8 abstract view
.subckt sg13g2_buf_8 A X VDD VSS
.ends

* Black-box entry subcircuit for sg13g2_nand3b_1 abstract view
.subckt sg13g2_nand3b_1 B C Y VDD VSS A_N
.ends

* Black-box entry subcircuit for sg13g2_a22oi_1 abstract view
.subckt sg13g2_a22oi_1 Y B1 B2 A2 A1 VDD VSS
.ends

.subckt W_TT_IF2 CLK_TT_PROJECT ENA_TT_PROJECT RST_N_TT_PROJECT Tile_X0Y0_E1BEG[0]
+ Tile_X0Y0_E1BEG[1] Tile_X0Y0_E1BEG[2] Tile_X0Y0_E1BEG[3] Tile_X0Y0_E2BEG[0] Tile_X0Y0_E2BEG[1]
+ Tile_X0Y0_E2BEG[2] Tile_X0Y0_E2BEG[3] Tile_X0Y0_E2BEG[4] Tile_X0Y0_E2BEG[5] Tile_X0Y0_E2BEG[6]
+ Tile_X0Y0_E2BEG[7] Tile_X0Y0_E2BEGb[0] Tile_X0Y0_E2BEGb[1] Tile_X0Y0_E2BEGb[2] Tile_X0Y0_E2BEGb[3]
+ Tile_X0Y0_E2BEGb[4] Tile_X0Y0_E2BEGb[5] Tile_X0Y0_E2BEGb[6] Tile_X0Y0_E2BEGb[7]
+ Tile_X0Y0_E6BEG[0] Tile_X0Y0_E6BEG[10] Tile_X0Y0_E6BEG[11] Tile_X0Y0_E6BEG[1] Tile_X0Y0_E6BEG[2]
+ Tile_X0Y0_E6BEG[3] Tile_X0Y0_E6BEG[4] Tile_X0Y0_E6BEG[5] Tile_X0Y0_E6BEG[6] Tile_X0Y0_E6BEG[7]
+ Tile_X0Y0_E6BEG[8] Tile_X0Y0_E6BEG[9] Tile_X0Y0_EE4BEG[0] Tile_X0Y0_EE4BEG[10] Tile_X0Y0_EE4BEG[11]
+ Tile_X0Y0_EE4BEG[12] Tile_X0Y0_EE4BEG[13] Tile_X0Y0_EE4BEG[14] Tile_X0Y0_EE4BEG[15]
+ Tile_X0Y0_EE4BEG[1] Tile_X0Y0_EE4BEG[2] Tile_X0Y0_EE4BEG[3] Tile_X0Y0_EE4BEG[4]
+ Tile_X0Y0_EE4BEG[5] Tile_X0Y0_EE4BEG[6] Tile_X0Y0_EE4BEG[7] Tile_X0Y0_EE4BEG[8]
+ Tile_X0Y0_EE4BEG[9] Tile_X0Y0_FrameData[0] Tile_X0Y0_FrameData[10] Tile_X0Y0_FrameData[11]
+ Tile_X0Y0_FrameData[12] Tile_X0Y0_FrameData[13] Tile_X0Y0_FrameData[14] Tile_X0Y0_FrameData[15]
+ Tile_X0Y0_FrameData[16] Tile_X0Y0_FrameData[17] Tile_X0Y0_FrameData[18] Tile_X0Y0_FrameData[19]
+ Tile_X0Y0_FrameData[1] Tile_X0Y0_FrameData[20] Tile_X0Y0_FrameData[21] Tile_X0Y0_FrameData[22]
+ Tile_X0Y0_FrameData[23] Tile_X0Y0_FrameData[24] Tile_X0Y0_FrameData[25] Tile_X0Y0_FrameData[26]
+ Tile_X0Y0_FrameData[27] Tile_X0Y0_FrameData[28] Tile_X0Y0_FrameData[29] Tile_X0Y0_FrameData[2]
+ Tile_X0Y0_FrameData[30] Tile_X0Y0_FrameData[31] Tile_X0Y0_FrameData[3] Tile_X0Y0_FrameData[4]
+ Tile_X0Y0_FrameData[5] Tile_X0Y0_FrameData[6] Tile_X0Y0_FrameData[7] Tile_X0Y0_FrameData[8]
+ Tile_X0Y0_FrameData[9] Tile_X0Y0_FrameData_O[0] Tile_X0Y0_FrameData_O[10] Tile_X0Y0_FrameData_O[11]
+ Tile_X0Y0_FrameData_O[12] Tile_X0Y0_FrameData_O[13] Tile_X0Y0_FrameData_O[14] Tile_X0Y0_FrameData_O[15]
+ Tile_X0Y0_FrameData_O[16] Tile_X0Y0_FrameData_O[17] Tile_X0Y0_FrameData_O[18] Tile_X0Y0_FrameData_O[19]
+ Tile_X0Y0_FrameData_O[1] Tile_X0Y0_FrameData_O[20] Tile_X0Y0_FrameData_O[21] Tile_X0Y0_FrameData_O[22]
+ Tile_X0Y0_FrameData_O[23] Tile_X0Y0_FrameData_O[24] Tile_X0Y0_FrameData_O[25] Tile_X0Y0_FrameData_O[26]
+ Tile_X0Y0_FrameData_O[27] Tile_X0Y0_FrameData_O[28] Tile_X0Y0_FrameData_O[29] Tile_X0Y0_FrameData_O[2]
+ Tile_X0Y0_FrameData_O[30] Tile_X0Y0_FrameData_O[31] Tile_X0Y0_FrameData_O[3] Tile_X0Y0_FrameData_O[4]
+ Tile_X0Y0_FrameData_O[5] Tile_X0Y0_FrameData_O[6] Tile_X0Y0_FrameData_O[7] Tile_X0Y0_FrameData_O[8]
+ Tile_X0Y0_FrameData_O[9] Tile_X0Y0_FrameStrobe_O[0] Tile_X0Y0_FrameStrobe_O[10]
+ Tile_X0Y0_FrameStrobe_O[11] Tile_X0Y0_FrameStrobe_O[12] Tile_X0Y0_FrameStrobe_O[13]
+ Tile_X0Y0_FrameStrobe_O[14] Tile_X0Y0_FrameStrobe_O[15] Tile_X0Y0_FrameStrobe_O[16]
+ Tile_X0Y0_FrameStrobe_O[17] Tile_X0Y0_FrameStrobe_O[18] Tile_X0Y0_FrameStrobe_O[19]
+ Tile_X0Y0_FrameStrobe_O[1] Tile_X0Y0_FrameStrobe_O[2] Tile_X0Y0_FrameStrobe_O[3]
+ Tile_X0Y0_FrameStrobe_O[4] Tile_X0Y0_FrameStrobe_O[5] Tile_X0Y0_FrameStrobe_O[6]
+ Tile_X0Y0_FrameStrobe_O[7] Tile_X0Y0_FrameStrobe_O[8] Tile_X0Y0_FrameStrobe_O[9]
+ Tile_X0Y0_N1BEG[0] Tile_X0Y0_N1BEG[1] Tile_X0Y0_N1BEG[2] Tile_X0Y0_N1BEG[3] Tile_X0Y0_N2BEG[0]
+ Tile_X0Y0_N2BEG[1] Tile_X0Y0_N2BEG[2] Tile_X0Y0_N2BEG[3] Tile_X0Y0_N2BEG[4] Tile_X0Y0_N2BEG[5]
+ Tile_X0Y0_N2BEG[6] Tile_X0Y0_N2BEG[7] Tile_X0Y0_N2BEGb[0] Tile_X0Y0_N2BEGb[1] Tile_X0Y0_N2BEGb[2]
+ Tile_X0Y0_N2BEGb[3] Tile_X0Y0_N2BEGb[4] Tile_X0Y0_N2BEGb[5] Tile_X0Y0_N2BEGb[6]
+ Tile_X0Y0_N2BEGb[7] Tile_X0Y0_N4BEG[0] Tile_X0Y0_N4BEG[10] Tile_X0Y0_N4BEG[11] Tile_X0Y0_N4BEG[12]
+ Tile_X0Y0_N4BEG[13] Tile_X0Y0_N4BEG[14] Tile_X0Y0_N4BEG[15] Tile_X0Y0_N4BEG[1] Tile_X0Y0_N4BEG[2]
+ Tile_X0Y0_N4BEG[3] Tile_X0Y0_N4BEG[4] Tile_X0Y0_N4BEG[5] Tile_X0Y0_N4BEG[6] Tile_X0Y0_N4BEG[7]
+ Tile_X0Y0_N4BEG[8] Tile_X0Y0_N4BEG[9] Tile_X0Y0_S1END[0] Tile_X0Y0_S1END[1] Tile_X0Y0_S1END[2]
+ Tile_X0Y0_S1END[3] Tile_X0Y0_S2END[0] Tile_X0Y0_S2END[1] Tile_X0Y0_S2END[2] Tile_X0Y0_S2END[3]
+ Tile_X0Y0_S2END[4] Tile_X0Y0_S2END[5] Tile_X0Y0_S2END[6] Tile_X0Y0_S2END[7] Tile_X0Y0_S2MID[0]
+ Tile_X0Y0_S2MID[1] Tile_X0Y0_S2MID[2] Tile_X0Y0_S2MID[3] Tile_X0Y0_S2MID[4] Tile_X0Y0_S2MID[5]
+ Tile_X0Y0_S2MID[6] Tile_X0Y0_S2MID[7] Tile_X0Y0_S4END[0] Tile_X0Y0_S4END[10] Tile_X0Y0_S4END[11]
+ Tile_X0Y0_S4END[12] Tile_X0Y0_S4END[13] Tile_X0Y0_S4END[14] Tile_X0Y0_S4END[15]
+ Tile_X0Y0_S4END[1] Tile_X0Y0_S4END[2] Tile_X0Y0_S4END[3] Tile_X0Y0_S4END[4] Tile_X0Y0_S4END[5]
+ Tile_X0Y0_S4END[6] Tile_X0Y0_S4END[7] Tile_X0Y0_S4END[8] Tile_X0Y0_S4END[9] Tile_X0Y0_UserCLKo
+ Tile_X0Y0_W1END[0] Tile_X0Y0_W1END[1] Tile_X0Y0_W1END[2] Tile_X0Y0_W1END[3] Tile_X0Y0_W2END[0]
+ Tile_X0Y0_W2END[1] Tile_X0Y0_W2END[2] Tile_X0Y0_W2END[3] Tile_X0Y0_W2END[4] Tile_X0Y0_W2END[5]
+ Tile_X0Y0_W2END[6] Tile_X0Y0_W2END[7] Tile_X0Y0_W2MID[0] Tile_X0Y0_W2MID[1] Tile_X0Y0_W2MID[2]
+ Tile_X0Y0_W2MID[3] Tile_X0Y0_W2MID[4] Tile_X0Y0_W2MID[5] Tile_X0Y0_W2MID[6] Tile_X0Y0_W2MID[7]
+ Tile_X0Y0_W6END[0] Tile_X0Y0_W6END[10] Tile_X0Y0_W6END[11] Tile_X0Y0_W6END[1] Tile_X0Y0_W6END[2]
+ Tile_X0Y0_W6END[3] Tile_X0Y0_W6END[4] Tile_X0Y0_W6END[5] Tile_X0Y0_W6END[6] Tile_X0Y0_W6END[7]
+ Tile_X0Y0_W6END[8] Tile_X0Y0_W6END[9] Tile_X0Y0_WW4END[0] Tile_X0Y0_WW4END[10] Tile_X0Y0_WW4END[11]
+ Tile_X0Y0_WW4END[12] Tile_X0Y0_WW4END[13] Tile_X0Y0_WW4END[14] Tile_X0Y0_WW4END[15]
+ Tile_X0Y0_WW4END[1] Tile_X0Y0_WW4END[2] Tile_X0Y0_WW4END[3] Tile_X0Y0_WW4END[4]
+ Tile_X0Y0_WW4END[5] Tile_X0Y0_WW4END[6] Tile_X0Y0_WW4END[7] Tile_X0Y0_WW4END[8]
+ Tile_X0Y0_WW4END[9] Tile_X0Y1_E1BEG[0] Tile_X0Y1_E1BEG[1] Tile_X0Y1_E1BEG[2] Tile_X0Y1_E1BEG[3]
+ Tile_X0Y1_E2BEG[0] Tile_X0Y1_E2BEG[1] Tile_X0Y1_E2BEG[2] Tile_X0Y1_E2BEG[3] Tile_X0Y1_E2BEG[4]
+ Tile_X0Y1_E2BEG[5] Tile_X0Y1_E2BEG[6] Tile_X0Y1_E2BEG[7] Tile_X0Y1_E2BEGb[0] Tile_X0Y1_E2BEGb[1]
+ Tile_X0Y1_E2BEGb[2] Tile_X0Y1_E2BEGb[3] Tile_X0Y1_E2BEGb[4] Tile_X0Y1_E2BEGb[5]
+ Tile_X0Y1_E2BEGb[6] Tile_X0Y1_E2BEGb[7] Tile_X0Y1_E6BEG[0] Tile_X0Y1_E6BEG[10] Tile_X0Y1_E6BEG[11]
+ Tile_X0Y1_E6BEG[1] Tile_X0Y1_E6BEG[2] Tile_X0Y1_E6BEG[3] Tile_X0Y1_E6BEG[4] Tile_X0Y1_E6BEG[5]
+ Tile_X0Y1_E6BEG[6] Tile_X0Y1_E6BEG[7] Tile_X0Y1_E6BEG[8] Tile_X0Y1_E6BEG[9] Tile_X0Y1_EE4BEG[0]
+ Tile_X0Y1_EE4BEG[10] Tile_X0Y1_EE4BEG[11] Tile_X0Y1_EE4BEG[12] Tile_X0Y1_EE4BEG[13]
+ Tile_X0Y1_EE4BEG[14] Tile_X0Y1_EE4BEG[15] Tile_X0Y1_EE4BEG[1] Tile_X0Y1_EE4BEG[2]
+ Tile_X0Y1_EE4BEG[3] Tile_X0Y1_EE4BEG[4] Tile_X0Y1_EE4BEG[5] Tile_X0Y1_EE4BEG[6]
+ Tile_X0Y1_EE4BEG[7] Tile_X0Y1_EE4BEG[8] Tile_X0Y1_EE4BEG[9] Tile_X0Y1_FrameData[0]
+ Tile_X0Y1_FrameData[10] Tile_X0Y1_FrameData[11] Tile_X0Y1_FrameData[12] Tile_X0Y1_FrameData[13]
+ Tile_X0Y1_FrameData[14] Tile_X0Y1_FrameData[15] Tile_X0Y1_FrameData[16] Tile_X0Y1_FrameData[17]
+ Tile_X0Y1_FrameData[18] Tile_X0Y1_FrameData[19] Tile_X0Y1_FrameData[1] Tile_X0Y1_FrameData[20]
+ Tile_X0Y1_FrameData[21] Tile_X0Y1_FrameData[22] Tile_X0Y1_FrameData[23] Tile_X0Y1_FrameData[24]
+ Tile_X0Y1_FrameData[25] Tile_X0Y1_FrameData[26] Tile_X0Y1_FrameData[27] Tile_X0Y1_FrameData[28]
+ Tile_X0Y1_FrameData[29] Tile_X0Y1_FrameData[2] Tile_X0Y1_FrameData[30] Tile_X0Y1_FrameData[31]
+ Tile_X0Y1_FrameData[3] Tile_X0Y1_FrameData[4] Tile_X0Y1_FrameData[5] Tile_X0Y1_FrameData[6]
+ Tile_X0Y1_FrameData[7] Tile_X0Y1_FrameData[8] Tile_X0Y1_FrameData[9] Tile_X0Y1_FrameData_O[0]
+ Tile_X0Y1_FrameData_O[10] Tile_X0Y1_FrameData_O[11] Tile_X0Y1_FrameData_O[12] Tile_X0Y1_FrameData_O[13]
+ Tile_X0Y1_FrameData_O[14] Tile_X0Y1_FrameData_O[15] Tile_X0Y1_FrameData_O[16] Tile_X0Y1_FrameData_O[17]
+ Tile_X0Y1_FrameData_O[18] Tile_X0Y1_FrameData_O[19] Tile_X0Y1_FrameData_O[1] Tile_X0Y1_FrameData_O[20]
+ Tile_X0Y1_FrameData_O[21] Tile_X0Y1_FrameData_O[22] Tile_X0Y1_FrameData_O[23] Tile_X0Y1_FrameData_O[24]
+ Tile_X0Y1_FrameData_O[25] Tile_X0Y1_FrameData_O[26] Tile_X0Y1_FrameData_O[27] Tile_X0Y1_FrameData_O[28]
+ Tile_X0Y1_FrameData_O[29] Tile_X0Y1_FrameData_O[2] Tile_X0Y1_FrameData_O[30] Tile_X0Y1_FrameData_O[31]
+ Tile_X0Y1_FrameData_O[3] Tile_X0Y1_FrameData_O[4] Tile_X0Y1_FrameData_O[5] Tile_X0Y1_FrameData_O[6]
+ Tile_X0Y1_FrameData_O[7] Tile_X0Y1_FrameData_O[8] Tile_X0Y1_FrameData_O[9] Tile_X0Y1_FrameStrobe[0]
+ Tile_X0Y1_FrameStrobe[10] Tile_X0Y1_FrameStrobe[11] Tile_X0Y1_FrameStrobe[12] Tile_X0Y1_FrameStrobe[13]
+ Tile_X0Y1_FrameStrobe[14] Tile_X0Y1_FrameStrobe[15] Tile_X0Y1_FrameStrobe[16] Tile_X0Y1_FrameStrobe[17]
+ Tile_X0Y1_FrameStrobe[18] Tile_X0Y1_FrameStrobe[19] Tile_X0Y1_FrameStrobe[1] Tile_X0Y1_FrameStrobe[2]
+ Tile_X0Y1_FrameStrobe[3] Tile_X0Y1_FrameStrobe[4] Tile_X0Y1_FrameStrobe[5] Tile_X0Y1_FrameStrobe[6]
+ Tile_X0Y1_FrameStrobe[7] Tile_X0Y1_FrameStrobe[8] Tile_X0Y1_FrameStrobe[9] Tile_X0Y1_N1END[0]
+ Tile_X0Y1_N1END[1] Tile_X0Y1_N1END[2] Tile_X0Y1_N1END[3] Tile_X0Y1_N2END[0] Tile_X0Y1_N2END[1]
+ Tile_X0Y1_N2END[2] Tile_X0Y1_N2END[3] Tile_X0Y1_N2END[4] Tile_X0Y1_N2END[5] Tile_X0Y1_N2END[6]
+ Tile_X0Y1_N2END[7] Tile_X0Y1_N2MID[0] Tile_X0Y1_N2MID[1] Tile_X0Y1_N2MID[2] Tile_X0Y1_N2MID[3]
+ Tile_X0Y1_N2MID[4] Tile_X0Y1_N2MID[5] Tile_X0Y1_N2MID[6] Tile_X0Y1_N2MID[7] Tile_X0Y1_N4END[0]
+ Tile_X0Y1_N4END[10] Tile_X0Y1_N4END[11] Tile_X0Y1_N4END[12] Tile_X0Y1_N4END[13]
+ Tile_X0Y1_N4END[14] Tile_X0Y1_N4END[15] Tile_X0Y1_N4END[1] Tile_X0Y1_N4END[2] Tile_X0Y1_N4END[3]
+ Tile_X0Y1_N4END[4] Tile_X0Y1_N4END[5] Tile_X0Y1_N4END[6] Tile_X0Y1_N4END[7] Tile_X0Y1_N4END[8]
+ Tile_X0Y1_N4END[9] Tile_X0Y1_S1BEG[0] Tile_X0Y1_S1BEG[1] Tile_X0Y1_S1BEG[2] Tile_X0Y1_S1BEG[3]
+ Tile_X0Y1_S2BEG[0] Tile_X0Y1_S2BEG[1] Tile_X0Y1_S2BEG[2] Tile_X0Y1_S2BEG[3] Tile_X0Y1_S2BEG[4]
+ Tile_X0Y1_S2BEG[5] Tile_X0Y1_S2BEG[6] Tile_X0Y1_S2BEG[7] Tile_X0Y1_S2BEGb[0] Tile_X0Y1_S2BEGb[1]
+ Tile_X0Y1_S2BEGb[2] Tile_X0Y1_S2BEGb[3] Tile_X0Y1_S2BEGb[4] Tile_X0Y1_S2BEGb[5]
+ Tile_X0Y1_S2BEGb[6] Tile_X0Y1_S2BEGb[7] Tile_X0Y1_S4BEG[0] Tile_X0Y1_S4BEG[10] Tile_X0Y1_S4BEG[11]
+ Tile_X0Y1_S4BEG[12] Tile_X0Y1_S4BEG[13] Tile_X0Y1_S4BEG[14] Tile_X0Y1_S4BEG[15]
+ Tile_X0Y1_S4BEG[1] Tile_X0Y1_S4BEG[2] Tile_X0Y1_S4BEG[3] Tile_X0Y1_S4BEG[4] Tile_X0Y1_S4BEG[5]
+ Tile_X0Y1_S4BEG[6] Tile_X0Y1_S4BEG[7] Tile_X0Y1_S4BEG[8] Tile_X0Y1_S4BEG[9] Tile_X0Y1_UserCLK
+ Tile_X0Y1_W1END[0] Tile_X0Y1_W1END[1] Tile_X0Y1_W1END[2] Tile_X0Y1_W1END[3] Tile_X0Y1_W2END[0]
+ Tile_X0Y1_W2END[1] Tile_X0Y1_W2END[2] Tile_X0Y1_W2END[3] Tile_X0Y1_W2END[4] Tile_X0Y1_W2END[5]
+ Tile_X0Y1_W2END[6] Tile_X0Y1_W2END[7] Tile_X0Y1_W2MID[0] Tile_X0Y1_W2MID[1] Tile_X0Y1_W2MID[2]
+ Tile_X0Y1_W2MID[3] Tile_X0Y1_W2MID[4] Tile_X0Y1_W2MID[5] Tile_X0Y1_W2MID[6] Tile_X0Y1_W2MID[7]
+ Tile_X0Y1_W6END[0] Tile_X0Y1_W6END[10] Tile_X0Y1_W6END[11] Tile_X0Y1_W6END[1] Tile_X0Y1_W6END[2]
+ Tile_X0Y1_W6END[3] Tile_X0Y1_W6END[4] Tile_X0Y1_W6END[5] Tile_X0Y1_W6END[6] Tile_X0Y1_W6END[7]
+ Tile_X0Y1_W6END[8] Tile_X0Y1_W6END[9] Tile_X0Y1_WW4END[0] Tile_X0Y1_WW4END[10] Tile_X0Y1_WW4END[11]
+ Tile_X0Y1_WW4END[12] Tile_X0Y1_WW4END[13] Tile_X0Y1_WW4END[14] Tile_X0Y1_WW4END[15]
+ Tile_X0Y1_WW4END[1] Tile_X0Y1_WW4END[2] Tile_X0Y1_WW4END[3] Tile_X0Y1_WW4END[4]
+ Tile_X0Y1_WW4END[5] Tile_X0Y1_WW4END[6] Tile_X0Y1_WW4END[7] Tile_X0Y1_WW4END[8]
+ Tile_X0Y1_WW4END[9] UIO_IN_TT_PROJECT0 UIO_IN_TT_PROJECT1 UIO_IN_TT_PROJECT2 UIO_IN_TT_PROJECT3
+ UIO_IN_TT_PROJECT4 UIO_IN_TT_PROJECT5 UIO_IN_TT_PROJECT6 UIO_IN_TT_PROJECT7 UIO_OE_TT_PROJECT0
+ UIO_OE_TT_PROJECT1 UIO_OE_TT_PROJECT2 UIO_OE_TT_PROJECT3 UIO_OE_TT_PROJECT4 UIO_OE_TT_PROJECT5
+ UIO_OE_TT_PROJECT6 UIO_OE_TT_PROJECT7 UIO_OUT_TT_PROJECT0 UIO_OUT_TT_PROJECT1 UIO_OUT_TT_PROJECT2
+ UIO_OUT_TT_PROJECT3 UIO_OUT_TT_PROJECT4 UIO_OUT_TT_PROJECT5 UIO_OUT_TT_PROJECT6
+ UIO_OUT_TT_PROJECT7 UI_IN_TT_PROJECT0 UI_IN_TT_PROJECT1 UI_IN_TT_PROJECT2 UI_IN_TT_PROJECT3
+ UI_IN_TT_PROJECT4 UI_IN_TT_PROJECT5 UI_IN_TT_PROJECT6 UI_IN_TT_PROJECT7 UO_OUT_TT_PROJECT0
+ UO_OUT_TT_PROJECT1 UO_OUT_TT_PROJECT2 UO_OUT_TT_PROJECT3 UO_OUT_TT_PROJECT4 UO_OUT_TT_PROJECT5
+ UO_OUT_TT_PROJECT6 UO_OUT_TT_PROJECT7 VGND VPWR
X_0367_ VPWR _0297_ Tile_X0Y1_W6END[3] VGND sg13g2_inv_1
XFILLER_22_155 VPWR VGND sg13g2_fill_1
XFILLER_7_7 VPWR VGND sg13g2_decap_8
XFILLER_89_199 VPWR VGND sg13g2_fill_1
XFILLER_26_85 VPWR VGND sg13g2_fill_2
XFILLER_9_126 VPWR VGND sg13g2_fill_1
XFILLER_13_177 VPWR VGND sg13g2_fill_1
XFILLER_13_199 VPWR VGND sg13g2_fill_1
X_1270_ Tile_X0Y1_FrameData[17] Tile_X0Y1_FrameStrobe[3] Tile_X0Y1_W_TT_IF2_bot.Inst_W_TT_IF2_bot_ConfigMem.Inst_frame3_bit17.Q
+ VPWR VGND sg13g2_dlhq_1
X_0985_ Tile_X0Y0_FrameData[22] Tile_X0Y1_FrameStrobe[2] Tile_X0Y0_W_TT_IF2_top.Inst_W_TT_IF2_top_ConfigMem.Inst_frame2_bit22.Q
+ VPWR VGND sg13g2_dlhq_1
X_1606_ Tile_X0Y1_FrameData[4] Tile_X0Y1_FrameData_O[4] VPWR VGND sg13g2_buf_1
X_1468_ Tile_X0Y0_FrameData[3] Tile_X0Y0_FrameData_O[3] VPWR VGND sg13g2_buf_1
X_0419_ Tile_X0Y0_W_TT_IF2_top.Inst_W_TT_IF2_top_ConfigMem.Inst_frame6_bit22.Q Tile_X0Y0_W2MID[6]
+ Tile_X0Y0_W2END[6] Tile_X0Y0_W6END[9] Tile_X0Y0_W_TT_IF2_top.Inst_W_TT_IF2_top_switch_matrix.J_NS2_BEG1
+ Tile_X0Y0_W_TT_IF2_top.Inst_W_TT_IF2_top_ConfigMem.Inst_frame6_bit23.Q Tile_X0Y0_W_TT_IF2_top.Inst_W_TT_IF2_top_switch_matrix.S2BEG1
+ VPWR VGND sg13g2_mux4_1
X_1537_ Tile_X0Y1_N4END[8] Tile_X0Y0_N4BEG[0] VPWR VGND sg13g2_buf_1
X_1399_ Tile_X0Y1_FrameData[16] Tile_X0Y1_FrameStrobe[7] Tile_X0Y1_W_TT_IF2_bot.Inst_W_TT_IF2_bot_ConfigMem.Inst_frame7_bit16.Q
+ VPWR VGND sg13g2_dlhq_1
XFILLER_103_35 VPWR VGND sg13g2_decap_8
XFILLER_10_125 VPWR VGND sg13g2_fill_1
XFILLER_6_107 VPWR VGND sg13g2_decap_8
XFILLER_12_65 VPWR VGND sg13g2_fill_1
XFILLER_85_180 VPWR VGND sg13g2_decap_4
XFILLER_77_158 VPWR VGND sg13g2_fill_2
XFILLER_77_114 VPWR VGND sg13g2_decap_8
X_0770_ _0162_ Tile_X0Y1_W_TT_IF2_bot.Inst_W_TT_IF2_bot_ConfigMem.Inst_frame7_bit26.Q
+ _0163_ VPWR VGND sg13g2_nor2b_1
XFILLER_68_114 VPWR VGND sg13g2_fill_1
X_1322_ Tile_X0Y1_FrameData[29] Tile_X0Y1_FrameStrobe[5] Tile_X0Y1_W_TT_IF2_bot.Inst_W_TT_IF2_bot_ConfigMem.Inst_frame5_bit29.Q
+ VPWR VGND sg13g2_dlhq_1
XFILLER_38_4 VPWR VGND sg13g2_fill_1
X_1253_ Tile_X0Y1_FrameData[2] Tile_X0Y1_FrameStrobe[2] Tile_X0Y1_W_TT_IF2_bot.Inst_W_TT_IF2_bot_ConfigMem.Inst_frame2_bit2.Q
+ VPWR VGND sg13g2_dlhq_1
XFILLER_94_90 VPWR VGND sg13g2_decap_4
X_1184_ Tile_X0Y1_FrameData[7] Tile_X0Y1_FrameStrobe[0] Tile_X0Y1_W_TT_IF2_bot.Inst_W_TT_IF2_bot_ConfigMem.Inst_frame0_bit7.Q
+ VPWR VGND sg13g2_dlhq_1
X_0968_ Tile_X0Y0_FrameData[7] Tile_X0Y1_FrameStrobe[1] Tile_X0Y0_W_TT_IF2_top.Inst_W_TT_IF2_top_ConfigMem.Inst_frame1_bit7.Q
+ VPWR VGND sg13g2_dlhq_1
X_0899_ VGND VPWR Tile_X0Y1_W2MID[0] Tile_X0Y1_W_TT_IF2_bot.Inst_W_TT_IF2_bot_ConfigMem.Inst_frame1_bit4.Q
+ _0275_ _0274_ sg13g2_a21oi_1
XFILLER_59_147 VPWR VGND sg13g2_fill_1
XFILLER_82_194 VPWR VGND sg13g2_decap_4
XFILLER_99_35 VPWR VGND sg13g2_decap_8
XFILLER_23_75 VPWR VGND sg13g2_fill_2
XFILLER_2_154 VPWR VGND sg13g2_decap_8
XFILLER_2_143 VPWR VGND sg13g2_fill_1
XFILLER_2_110 VPWR VGND sg13g2_decap_8
XFILLER_0_35 VPWR VGND sg13g2_decap_8
XFILLER_9_33 VPWR VGND sg13g2_fill_2
X_0822_ VGND VPWR Tile_X0Y1_W_TT_IF2_bot.Inst_W_TT_IF2_bot_ConfigMem.Inst_frame5_bit6.Q
+ _0207_ _0208_ _0304_ sg13g2_a21oi_1
XFILLER_89_90 VPWR VGND sg13g2_decap_8
X_0684_ _0119_ _0001_ Tile_X0Y1_W_TT_IF2_bot.Inst_W_TT_IF2_bot_ConfigMem.Inst_frame5_bit20.Q
+ VPWR VGND sg13g2_nand2b_1
X_0753_ Tile_X0Y1_W_TT_IF2_bot.Inst_W_TT_IF2_bot_ConfigMem.Inst_frame3_bit15.Q UO_OUT_TT_PROJECT3
+ _0158_ UO_OUT_TT_PROJECT7 _0335_ Tile_X0Y1_W_TT_IF2_bot.Inst_W_TT_IF2_bot_ConfigMem.Inst_frame3_bit14.Q
+ Tile_X0Y1_W_TT_IF2_bot.Inst_W_TT_IF2_bot_switch_matrix.EE4BEG15 VPWR VGND sg13g2_mux4_1
XFILLER_56_139 VPWR VGND sg13g2_fill_1
X_1305_ Tile_X0Y1_FrameData[14] Tile_X0Y1_FrameStrobe[4] Tile_X0Y1_W_TT_IF2_bot.Inst_W_TT_IF2_bot_ConfigMem.Inst_frame4_bit14.Q
+ VPWR VGND sg13g2_dlhq_1
XFILLER_29_0 VPWR VGND sg13g2_decap_4
X_1236_ Tile_X0Y1_FrameData[19] Tile_X0Y1_FrameStrobe[2] Tile_X0Y1_W_TT_IF2_bot.Inst_W_TT_IF2_bot_ConfigMem.Inst_frame2_bit19.Q
+ VPWR VGND sg13g2_dlhq_1
XFILLER_100_14 VPWR VGND sg13g2_decap_8
X_1098_ Tile_X0Y0_FrameData[5] Tile_X0Y1_FrameStrobe[5] Tile_X0Y0_W_TT_IF2_top.Inst_W_TT_IF2_top_ConfigMem.Inst_frame5_bit5.Q
+ VPWR VGND sg13g2_dlhq_1
X_1167_ Tile_X0Y1_FrameData[24] Tile_X0Y1_FrameStrobe[0] Tile_X0Y1_W_TT_IF2_bot.Inst_W_TT_IF2_bot_ConfigMem.Inst_frame0_bit24.Q
+ VPWR VGND sg13g2_dlhq_1
XFILLER_107_7 VPWR VGND sg13g2_decap_8
XFILLER_70_175 VPWR VGND sg13g2_fill_2
XFILLER_70_142 VPWR VGND sg13g2_fill_2
XFILLER_109_141 VPWR VGND sg13g2_fill_2
XFILLER_109_130 VPWR VGND sg13g2_decap_8
XFILLER_50_40 VPWR VGND sg13g2_decap_8
X_1021_ Tile_X0Y0_FrameData[18] Tile_X0Y1_FrameStrobe[3] Tile_X0Y0_W_TT_IF2_top.Inst_W_TT_IF2_top_ConfigMem.Inst_frame3_bit18.Q
+ VPWR VGND sg13g2_dlhq_1
XFILLER_61_142 VPWR VGND sg13g2_fill_1
X_0805_ _0153_ _0149_ Tile_X0Y1_W_TT_IF2_bot.Inst_W_TT_IF2_bot_ConfigMem.Inst_frame6_bit31.Q
+ _0193_ VPWR VGND sg13g2_mux2_1
X_0598_ Tile_X0Y0_W_TT_IF2_top.Inst_W_TT_IF2_top_ConfigMem.Inst_frame5_bit10.Q _0065_
+ _0066_ VPWR VGND sg13g2_and2_1
X_0667_ Tile_X0Y1_W_TT_IF2_bot.Inst_W_TT_IF2_bot_ConfigMem.Inst_frame6_bit14.Q Tile_X0Y1_W2MID[6]
+ Tile_X0Y1_W2END[6] Tile_X0Y1_W6END[9] _0342_ Tile_X0Y1_W_TT_IF2_bot.Inst_W_TT_IF2_bot_ConfigMem.Inst_frame6_bit15.Q
+ Tile_X0Y1_W_TT_IF2_bot.Inst_W_TT_IF2_bot_switch_matrix.S2BEG1 VPWR VGND sg13g2_mux4_1
X_0736_ Tile_X0Y1_W_TT_IF2_bot.Inst_W_TT_IF2_bot_ConfigMem.Inst_frame1_bit24.Q Tile_X0Y1_N1END[0]
+ Tile_X0Y1_N4END[0] _0007_ Tile_X0Y0_S4END[4] Tile_X0Y1_W_TT_IF2_bot.Inst_W_TT_IF2_bot_ConfigMem.Inst_frame1_bit25.Q
+ _0150_ VPWR VGND sg13g2_mux4_1
X_1219_ Tile_X0Y1_FrameData[4] Tile_X0Y1_FrameStrobe[1] Tile_X0Y1_W_TT_IF2_bot.Inst_W_TT_IF2_bot_ConfigMem.Inst_frame1_bit4.Q
+ VPWR VGND sg13g2_dlhq_1
XFILLER_71_39 VPWR VGND sg13g2_decap_4
XFILLER_106_133 VPWR VGND sg13g2_decap_8
XFILLER_96_25 VPWR VGND sg13g2_fill_1
XFILLER_96_14 VPWR VGND sg13g2_decap_8
XFILLER_43_197 VPWR VGND sg13g2_fill_2
X_0521_ Tile_X0Y0_W_TT_IF2_top.Inst_W_TT_IF2_top_ConfigMem.Inst_frame1_bit14.Q Tile_X0Y0_W_TT_IF2_top.Inst_W_TT_IF2_top_switch_matrix.N1END3
+ Tile_X0Y1_N4END[7] Tile_X0Y0_S1END[3] Tile_X0Y0_S4END[3] Tile_X0Y0_W_TT_IF2_top.Inst_W_TT_IF2_top_ConfigMem.Inst_frame1_bit15.Q
+ _0011_ VPWR VGND sg13g2_mux4_1
X_0452_ Tile_X0Y0_W_TT_IF2_top.Inst_W_TT_IF2_top_ConfigMem.Inst_frame6_bit29.Q Tile_X0Y0_W1END[0]
+ Tile_X0Y0_W2END[3] Tile_X0Y0_W2MID[3] Tile_X0Y0_W_TT_IF2_top.Inst_W_TT_IF2_top_switch_matrix.J_NS2_BEG4
+ Tile_X0Y0_W_TT_IF2_top.Inst_W_TT_IF2_top_ConfigMem.Inst_frame6_bit28.Q Tile_X0Y0_W_TT_IF2_top.Inst_W_TT_IF2_top_switch_matrix.S2BEG4
+ VPWR VGND sg13g2_mux4_1
X_1570_ Tile_X0Y1_W_TT_IF2_bot.Inst_W_TT_IF2_bot_switch_matrix.E2BEGb4 Tile_X0Y1_E2BEGb[4]
+ VPWR VGND sg13g2_buf_1
XANTENNA_5 VPWR VGND Tile_X0Y1_FrameData[23] sg13g2_antennanp
X_0383_ Tile_X0Y1_N1END[1] Tile_X0Y1_W_TT_IF2_bot.Inst_W_TT_IF2_bot_ConfigMem.Inst_frame0_bit26.Q
+ Tile_X0Y1_W_TT_IF2_bot.Inst_W_TT_IF2_bot_ConfigMem.Inst_frame0_bit27.Q _0313_ VPWR
+ VGND sg13g2_nor3_1
XFILLER_96_0 VPWR VGND sg13g2_decap_8
X_1004_ Tile_X0Y0_FrameData[3] Tile_X0Y1_FrameStrobe[2] Tile_X0Y0_W_TT_IF2_top.Inst_W_TT_IF2_top_ConfigMem.Inst_frame2_bit3.Q
+ VPWR VGND sg13g2_dlhq_1
XFILLER_34_197 VPWR VGND sg13g2_fill_2
XFILLER_106_35 VPWR VGND sg13g2_decap_8
X_0719_ VPWR VGND Tile_X0Y1_W_TT_IF2_bot.Inst_W_TT_IF2_bot_ConfigMem.Inst_frame4_bit11.Q
+ _0142_ _0141_ Tile_X0Y1_W_TT_IF2_bot.Inst_W_TT_IF2_bot_ConfigMem.Inst_frame4_bit10.Q
+ Tile_X0Y1_W_TT_IF2_bot.Inst_W_TT_IF2_bot_switch_matrix.E2BEGb5 _0348_ sg13g2_a221oi_1
XFILLER_15_32 VPWR VGND sg13g2_fill_2
XFILLER_16_120 VPWR VGND sg13g2_fill_1
XFILLER_16_142 VPWR VGND sg13g2_fill_2
X_1622_ Tile_X0Y1_FrameData[20] Tile_X0Y1_FrameData_O[20] VPWR VGND sg13g2_buf_1
X_1553_ clknet_1_1__leaf_Tile_X0Y1_UserCLK Tile_X0Y0_UserCLKo VPWR VGND sg13g2_buf_1
X_1484_ Tile_X0Y0_FrameData[19] Tile_X0Y0_FrameData_O[19] VPWR VGND sg13g2_buf_1
X_0504_ Tile_X0Y0_W_TT_IF2_top.Inst_W_TT_IF2_top_ConfigMem.Inst_frame4_bit30.Q UIO_OUT_TT_PROJECT3
+ UIO_OE_TT_PROJECT7 Tile_X0Y0_W_TT_IF2_top.Inst_W_TT_IF2_top_switch_matrix.J_NS4_BEG12
+ Tile_X0Y0_W_TT_IF2_top.Inst_W_TT_IF2_top_switch_matrix.J_NS2_BEG4 Tile_X0Y0_W_TT_IF2_top.Inst_W_TT_IF2_top_ConfigMem.Inst_frame4_bit31.Q
+ Tile_X0Y0_W_TT_IF2_top.Inst_W_TT_IF2_top_switch_matrix.EE4BEG3 VPWR VGND sg13g2_mux4_1
X_0435_ _0345_ _0346_ Tile_X0Y1_W_TT_IF2_bot.Inst_W_TT_IF2_bot_ConfigMem.Inst_frame0_bit13.Q
+ _0347_ VPWR VGND sg13g2_nand3_1
XFILLER_11_0 VPWR VGND sg13g2_decap_4
X_0366_ VPWR _0296_ Tile_X0Y0_S2MID[3] VGND sg13g2_inv_1
XFILLER_77_49 VPWR VGND sg13g2_fill_1
XFILLER_26_42 VPWR VGND sg13g2_fill_2
XFILLER_42_85 VPWR VGND sg13g2_decap_4
XFILLER_3_79 VPWR VGND sg13g2_decap_8
XFILLER_3_35 VPWR VGND sg13g2_decap_8
XFILLER_83_81 VPWR VGND sg13g2_fill_1
X_0984_ Tile_X0Y0_FrameData[23] Tile_X0Y1_FrameStrobe[2] Tile_X0Y0_W_TT_IF2_top.Inst_W_TT_IF2_top_ConfigMem.Inst_frame2_bit23.Q
+ VPWR VGND sg13g2_dlhq_1
X_1536_ Tile_X0Y0_W_TT_IF2_top.Inst_W_TT_IF2_top_switch_matrix.N2BEGb7 Tile_X0Y0_N2BEGb[7]
+ VPWR VGND sg13g2_buf_1
XFILLER_59_0 VPWR VGND sg13g2_fill_2
X_1605_ Tile_X0Y1_FrameData[3] Tile_X0Y1_FrameData_O[3] VPWR VGND sg13g2_buf_1
XFILLER_103_14 VPWR VGND sg13g2_decap_8
X_1467_ Tile_X0Y0_FrameData[2] Tile_X0Y0_FrameData_O[2] VPWR VGND sg13g2_buf_1
X_0418_ Tile_X0Y0_W_TT_IF2_top.Inst_W_TT_IF2_top_ConfigMem.Inst_frame7_bit16.Q Tile_X0Y0_W2MID[7]
+ Tile_X0Y0_W2END[7] Tile_X0Y0_W6END[7] Tile_X0Y0_W_TT_IF2_top.Inst_W_TT_IF2_top_switch_matrix.J_NS2_BEG0
+ Tile_X0Y0_W_TT_IF2_top.Inst_W_TT_IF2_top_ConfigMem.Inst_frame7_bit17.Q Tile_X0Y0_W_TT_IF2_top.Inst_W_TT_IF2_top_switch_matrix.N2BEG0
+ VPWR VGND sg13g2_mux4_1
X_1398_ Tile_X0Y1_FrameData[17] Tile_X0Y1_FrameStrobe[7] Tile_X0Y1_W_TT_IF2_bot.Inst_W_TT_IF2_bot_ConfigMem.Inst_frame7_bit17.Q
+ VPWR VGND sg13g2_dlhq_1
XFILLER_63_18 VPWR VGND sg13g2_fill_2
XFILLER_12_55 VPWR VGND sg13g2_fill_1
XFILLER_92_129 VPWR VGND sg13g2_fill_2
XFILLER_37_30 VPWR VGND sg13g2_decap_4
XFILLER_5_185 VPWR VGND sg13g2_decap_8
X_1321_ Tile_X0Y1_FrameData[30] Tile_X0Y1_FrameStrobe[5] Tile_X0Y1_W_TT_IF2_bot.Inst_W_TT_IF2_bot_ConfigMem.Inst_frame5_bit30.Q
+ VPWR VGND sg13g2_dlhq_1
X_1252_ Tile_X0Y1_FrameData[3] Tile_X0Y1_FrameStrobe[2] Tile_X0Y1_W_TT_IF2_bot.Inst_W_TT_IF2_bot_ConfigMem.Inst_frame2_bit3.Q
+ VPWR VGND sg13g2_dlhq_1
X_1183_ Tile_X0Y1_FrameData[8] Tile_X0Y1_FrameStrobe[0] Tile_X0Y1_W_TT_IF2_bot.Inst_W_TT_IF2_bot_ConfigMem.Inst_frame0_bit8.Q
+ VPWR VGND sg13g2_dlhq_1
X_0967_ Tile_X0Y0_FrameData[8] Tile_X0Y1_FrameStrobe[1] Tile_X0Y0_W_TT_IF2_top.Inst_W_TT_IF2_top_ConfigMem.Inst_frame1_bit8.Q
+ VPWR VGND sg13g2_dlhq_1
X_1519_ Tile_X0Y0_W_TT_IF2_top.Inst_W_TT_IF2_top_switch_matrix.N1BEG2 Tile_X0Y0_N1BEG[2]
+ VPWR VGND sg13g2_buf_1
X_0898_ Tile_X0Y1_W_TT_IF2_bot.Inst_W_TT_IF2_bot_ConfigMem.Inst_frame1_bit4.Q Tile_X0Y1_N2END[3]
+ _0274_ VPWR VGND sg13g2_nor2b_1
XFILLER_74_107 VPWR VGND sg13g2_decap_4
XFILLER_67_181 VPWR VGND sg13g2_fill_1
XFILLER_99_14 VPWR VGND sg13g2_decap_8
XFILLER_48_84 VPWR VGND sg13g2_fill_1
XFILLER_48_95 VPWR VGND sg13g2_fill_2
XFILLER_73_151 VPWR VGND sg13g2_decap_8
XFILLER_0_14 VPWR VGND sg13g2_decap_8
XFILLER_80_60 VPWR VGND sg13g2_fill_2
X_0821_ Tile_X0Y1_W_TT_IF2_bot.Inst_W_TT_IF2_bot_switch_matrix.J_NS4_BEG15 _0003_
+ Tile_X0Y1_W_TT_IF2_bot.Inst_W_TT_IF2_bot_ConfigMem.Inst_frame5_bit5.Q _0207_ VPWR
+ VGND sg13g2_mux2_1
X_0752_ Tile_X0Y1_W_TT_IF2_bot.Inst_W_TT_IF2_bot_ConfigMem.Inst_frame1_bit8.Q Tile_X0Y1_N1END[0]
+ Tile_X0Y1_N4END[0] _0007_ Tile_X0Y0_S4END[4] Tile_X0Y1_W_TT_IF2_bot.Inst_W_TT_IF2_bot_ConfigMem.Inst_frame1_bit9.Q
+ _0158_ VPWR VGND sg13g2_mux4_1
X_0683_ VPWR VGND Tile_X0Y1_W_TT_IF2_bot.Inst_W_TT_IF2_bot_ConfigMem.Inst_frame5_bit19.Q
+ _0118_ _0117_ Tile_X0Y1_W_TT_IF2_bot.Inst_W_TT_IF2_bot_ConfigMem.Inst_frame5_bit18.Q
+ Tile_X0Y1_W_TT_IF2_bot.Inst_W_TT_IF2_bot_switch_matrix.E2BEG1 _0341_ sg13g2_a221oi_1
X_1166_ Tile_X0Y1_FrameData[25] Tile_X0Y1_FrameStrobe[0] Tile_X0Y1_W_TT_IF2_bot.Inst_W_TT_IF2_bot_ConfigMem.Inst_frame0_bit25.Q
+ VPWR VGND sg13g2_dlhq_1
X_1235_ Tile_X0Y1_FrameData[20] Tile_X0Y1_FrameStrobe[2] Tile_X0Y1_W_TT_IF2_bot.Inst_W_TT_IF2_bot_ConfigMem.Inst_frame2_bit20.Q
+ VPWR VGND sg13g2_dlhq_1
X_1304_ Tile_X0Y1_FrameData[15] Tile_X0Y1_FrameStrobe[4] Tile_X0Y1_W_TT_IF2_bot.Inst_W_TT_IF2_bot_ConfigMem.Inst_frame4_bit15.Q
+ VPWR VGND sg13g2_dlhq_1
XFILLER_49_170 VPWR VGND sg13g2_decap_8
X_1097_ Tile_X0Y0_FrameData[6] Tile_X0Y1_FrameStrobe[5] Tile_X0Y0_W_TT_IF2_top.Inst_W_TT_IF2_top_ConfigMem.Inst_frame5_bit6.Q
+ VPWR VGND sg13g2_dlhq_1
XFILLER_69_17 VPWR VGND sg13g2_fill_1
XFILLER_55_184 VPWR VGND sg13g2_fill_1
XFILLER_70_198 VPWR VGND sg13g2_fill_2
XFILLER_34_42 VPWR VGND sg13g2_fill_1
X_1020_ Tile_X0Y0_FrameData[19] Tile_X0Y1_FrameStrobe[3] Tile_X0Y0_W_TT_IF2_top.Inst_W_TT_IF2_top_ConfigMem.Inst_frame3_bit19.Q
+ VPWR VGND sg13g2_dlhq_1
XFILLER_75_60 VPWR VGND sg13g2_decap_4
XFILLER_61_198 VPWR VGND sg13g2_fill_2
XFILLER_46_162 VPWR VGND sg13g2_decap_4
X_0804_ VGND VPWR _0188_ _0190_ Tile_X0Y1_W_TT_IF2_bot.Inst_W_TT_IF2_bot_switch_matrix.S4BEG0
+ _0192_ sg13g2_a21oi_1
X_0735_ Tile_X0Y1_W_TT_IF2_bot.Inst_W_TT_IF2_bot_ConfigMem.Inst_frame4_bit28.Q UO_OUT_TT_PROJECT2
+ UO_OUT_TT_PROJECT6 _0149_ _0342_ Tile_X0Y1_W_TT_IF2_bot.Inst_W_TT_IF2_bot_ConfigMem.Inst_frame4_bit29.Q
+ Tile_X0Y1_W_TT_IF2_bot.Inst_W_TT_IF2_bot_switch_matrix.EE4BEG6 VPWR VGND sg13g2_mux4_1
X_0597_ _0065_ Tile_X0Y0_W_TT_IF2_top.Inst_W_TT_IF2_top_ConfigMem.Inst_frame5_bit12.Q
+ Tile_X0Y0_W_TT_IF2_top.Inst_W_TT_IF2_top_switch_matrix.J_NS2_BEG6 VPWR VGND sg13g2_nand2b_1
X_0666_ Tile_X0Y1_W_TT_IF2_bot.Inst_W_TT_IF2_bot_ConfigMem.Inst_frame6_bit12.Q Tile_X0Y1_W2MID[7]
+ Tile_X0Y1_W2END[7] Tile_X0Y1_W6END[8] _0335_ Tile_X0Y1_W_TT_IF2_bot.Inst_W_TT_IF2_bot_ConfigMem.Inst_frame6_bit13.Q
+ Tile_X0Y1_W_TT_IF2_bot.Inst_W_TT_IF2_bot_switch_matrix.S2BEG0 VPWR VGND sg13g2_mux4_1
X_1149_ Tile_X0Y0_FrameData[18] Tile_X0Y1_FrameStrobe[7] Tile_X0Y0_W_TT_IF2_top.Inst_W_TT_IF2_top_ConfigMem.Inst_frame7_bit18.Q
+ VPWR VGND sg13g2_dlhq_1
X_1218_ Tile_X0Y1_FrameData[5] Tile_X0Y1_FrameStrobe[1] Tile_X0Y1_W_TT_IF2_bot.Inst_W_TT_IF2_bot_ConfigMem.Inst_frame1_bit5.Q
+ VPWR VGND sg13g2_dlhq_1
XFILLER_106_112 VPWR VGND sg13g2_decap_8
XFILLER_20_33 VPWR VGND sg13g2_fill_1
XFILLER_20_44 VPWR VGND sg13g2_fill_1
XFILLER_20_66 VPWR VGND sg13g2_fill_1
XFILLER_29_53 VPWR VGND sg13g2_fill_1
XFILLER_29_64 VPWR VGND sg13g2_fill_1
XFILLER_29_75 VPWR VGND sg13g2_fill_2
XFILLER_43_187 VPWR VGND sg13g2_fill_2
XFILLER_61_40 VPWR VGND sg13g2_decap_8
XANTENNA_6 VPWR VGND Tile_X0Y1_FrameData[23] sg13g2_antennanp
XFILLER_6_35 VPWR VGND sg13g2_decap_8
X_0520_ Tile_X0Y0_W_TT_IF2_top.Inst_W_TT_IF2_top_ConfigMem.Inst_frame3_bit14.Q UIO_OUT_TT_PROJECT7
+ UIO_OE_TT_PROJECT3 Tile_X0Y0_W_TT_IF2_top.Inst_W_TT_IF2_top_switch_matrix.J_NS4_BEG4
+ Tile_X0Y0_W_TT_IF2_top.Inst_W_TT_IF2_top_switch_matrix.J_NS2_BEG4 Tile_X0Y0_W_TT_IF2_top.Inst_W_TT_IF2_top_ConfigMem.Inst_frame3_bit15.Q
+ Tile_X0Y0_W_TT_IF2_top.Inst_W_TT_IF2_top_switch_matrix.EE4BEG11 VPWR VGND sg13g2_mux4_1
X_0451_ Tile_X0Y0_W_TT_IF2_top.Inst_W_TT_IF2_top_ConfigMem.Inst_frame7_bit22.Q Tile_X0Y0_W2MID[4]
+ Tile_X0Y0_W2END[4] Tile_X0Y0_W6END[4] Tile_X0Y0_W_TT_IF2_top.Inst_W_TT_IF2_top_switch_matrix.J_NS2_BEG3
+ Tile_X0Y0_W_TT_IF2_top.Inst_W_TT_IF2_top_ConfigMem.Inst_frame7_bit23.Q Tile_X0Y0_W_TT_IF2_top.Inst_W_TT_IF2_top_switch_matrix.N2BEG3
+ VPWR VGND sg13g2_mux4_1
XFILLER_6_79 VPWR VGND sg13g2_decap_8
X_0382_ _0312_ _0311_ Tile_X0Y1_W_TT_IF2_bot.Inst_W_TT_IF2_bot_ConfigMem.Inst_frame0_bit26.Q
+ VPWR VGND sg13g2_nand2b_1