*SPEF "ieee 1481-1999"
*DESIGN "eFPGA"
*DATE "12:26:53 Friday August 15, 2025"
*VENDOR "The OpenROAD Project"
*PROGRAM "OpenROAD"
*VERSION "341650e72dad0dc8571822ff8c5d9c5e365327f7"
*DESIGN_FLOW "NAME_SCOPE LOCAL" "PIN_CAP NONE"
*DIVIDER /
*DELIMITER :
*BUS_DELIMITER []
*T_UNIT 1 NS
*C_UNIT 1 PF
*R_UNIT 1 OHM
*L_UNIT 1 HENRY

*NAME_MAP
*1 FrameData[0]
*2 FrameData[100]
*3 FrameData[101]
*4 FrameData[102]
*5 FrameData[103]
*6 FrameData[104]
*7 FrameData[105]
*8 FrameData[106]
*9 FrameData[107]
*10 FrameData[108]
*11 FrameData[109]
*12 FrameData[10]
*13 FrameData[110]
*14 FrameData[111]
*15 FrameData[112]
*16 FrameData[113]
*17 FrameData[114]
*18 FrameData[115]
*19 FrameData[116]
*20 FrameData[117]
*21 FrameData[118]
*22 FrameData[119]
*23 FrameData[11]
*24 FrameData[120]
*25 FrameData[121]
*26 FrameData[122]
*27 FrameData[123]
*28 FrameData[124]
*29 FrameData[125]
*30 FrameData[126]
*31 FrameData[127]
*32 FrameData[128]
*33 FrameData[129]
*34 FrameData[12]
*35 FrameData[130]
*36 FrameData[131]
*37 FrameData[132]
*38 FrameData[133]
*39 FrameData[134]
*40 FrameData[135]
*41 FrameData[136]
*42 FrameData[137]
*43 FrameData[138]
*44 FrameData[139]
*45 FrameData[13]
*46 FrameData[140]
*47 FrameData[141]
*48 FrameData[142]
*49 FrameData[143]
*50 FrameData[144]
*51 FrameData[145]
*52 FrameData[146]
*53 FrameData[147]
*54 FrameData[148]
*55 FrameData[149]
*56 FrameData[14]
*57 FrameData[150]
*58 FrameData[151]
*59 FrameData[152]
*60 FrameData[153]
*61 FrameData[154]
*62 FrameData[155]
*63 FrameData[156]
*64 FrameData[157]
*65 FrameData[158]
*66 FrameData[159]
*67 FrameData[15]
*68 FrameData[160]
*69 FrameData[161]
*70 FrameData[162]
*71 FrameData[163]
*72 FrameData[164]
*73 FrameData[165]
*74 FrameData[166]
*75 FrameData[167]
*76 FrameData[168]
*77 FrameData[169]
*78 FrameData[16]
*79 FrameData[170]
*80 FrameData[171]
*81 FrameData[172]
*82 FrameData[173]
*83 FrameData[174]
*84 FrameData[175]
*85 FrameData[176]
*86 FrameData[177]
*87 FrameData[178]
*88 FrameData[179]
*89 FrameData[17]
*90 FrameData[180]
*91 FrameData[181]
*92 FrameData[182]
*93 FrameData[183]
*94 FrameData[184]
*95 FrameData[185]
*96 FrameData[186]
*97 FrameData[187]
*98 FrameData[188]
*99 FrameData[189]
*100 FrameData[18]
*101 FrameData[190]
*102 FrameData[191]
*103 FrameData[192]
*104 FrameData[193]
*105 FrameData[194]
*106 FrameData[195]
*107 FrameData[196]
*108 FrameData[197]
*109 FrameData[198]
*110 FrameData[199]
*111 FrameData[19]
*112 FrameData[1]
*113 FrameData[200]
*114 FrameData[201]
*115 FrameData[202]
*116 FrameData[203]
*117 FrameData[204]
*118 FrameData[205]
*119 FrameData[206]
*120 FrameData[207]
*121 FrameData[208]
*122 FrameData[209]
*123 FrameData[20]
*124 FrameData[210]
*125 FrameData[211]
*126 FrameData[212]
*127 FrameData[213]
*128 FrameData[214]
*129 FrameData[215]
*130 FrameData[216]
*131 FrameData[217]
*132 FrameData[218]
*133 FrameData[219]
*134 FrameData[21]
*135 FrameData[220]
*136 FrameData[221]
*137 FrameData[222]
*138 FrameData[223]
*139 FrameData[224]
*140 FrameData[225]
*141 FrameData[226]
*142 FrameData[227]
*143 FrameData[228]
*144 FrameData[229]
*145 FrameData[22]
*146 FrameData[230]
*147 FrameData[231]
*148 FrameData[232]
*149 FrameData[233]
*150 FrameData[234]
*151 FrameData[235]
*152 FrameData[236]
*153 FrameData[237]
*154 FrameData[238]
*155 FrameData[239]
*156 FrameData[23]
*157 FrameData[240]
*158 FrameData[241]
*159 FrameData[242]
*160 FrameData[243]
*161 FrameData[244]
*162 FrameData[245]
*163 FrameData[246]
*164 FrameData[247]
*165 FrameData[248]
*166 FrameData[249]
*167 FrameData[24]
*168 FrameData[250]
*169 FrameData[251]
*170 FrameData[252]
*171 FrameData[253]
*172 FrameData[254]
*173 FrameData[255]
*174 FrameData[256]
*175 FrameData[257]
*176 FrameData[258]
*177 FrameData[259]
*178 FrameData[25]
*179 FrameData[260]
*180 FrameData[261]
*181 FrameData[262]
*182 FrameData[263]
*183 FrameData[264]
*184 FrameData[265]
*185 FrameData[266]
*186 FrameData[267]
*187 FrameData[268]
*188 FrameData[269]
*189 FrameData[26]
*190 FrameData[270]
*191 FrameData[271]
*192 FrameData[272]
*193 FrameData[273]
*194 FrameData[274]
*195 FrameData[275]
*196 FrameData[276]
*197 FrameData[277]
*198 FrameData[278]
*199 FrameData[279]
*200 FrameData[27]
*201 FrameData[280]
*202 FrameData[281]
*203 FrameData[282]
*204 FrameData[283]
*205 FrameData[284]
*206 FrameData[285]
*207 FrameData[286]
*208 FrameData[287]
*209 FrameData[288]
*210 FrameData[289]
*211 FrameData[28]
*212 FrameData[290]
*213 FrameData[291]
*214 FrameData[292]
*215 FrameData[293]
*216 FrameData[294]
*217 FrameData[295]
*218 FrameData[296]
*219 FrameData[297]
*220 FrameData[298]
*221 FrameData[299]
*222 FrameData[29]
*223 FrameData[2]
*224 FrameData[300]
*225 FrameData[301]
*226 FrameData[302]
*227 FrameData[303]
*228 FrameData[304]
*229 FrameData[305]
*230 FrameData[306]
*231 FrameData[307]
*232 FrameData[308]
*233 FrameData[309]
*234 FrameData[30]
*235 FrameData[310]
*236 FrameData[311]
*237 FrameData[312]
*238 FrameData[313]
*239 FrameData[314]
*240 FrameData[315]
*241 FrameData[316]
*242 FrameData[317]
*243 FrameData[318]
*244 FrameData[319]
*245 FrameData[31]
*246 FrameData[32]
*247 FrameData[33]
*248 FrameData[34]
*249 FrameData[35]
*250 FrameData[36]
*251 FrameData[37]
*252 FrameData[38]
*253 FrameData[39]
*254 FrameData[3]
*255 FrameData[40]
*256 FrameData[41]
*257 FrameData[42]
*258 FrameData[43]
*259 FrameData[44]
*260 FrameData[45]
*261 FrameData[46]
*262 FrameData[47]
*263 FrameData[48]
*264 FrameData[49]
*265 FrameData[4]
*266 FrameData[50]
*267 FrameData[51]
*268 FrameData[52]
*269 FrameData[53]
*270 FrameData[54]
*271 FrameData[55]
*272 FrameData[56]
*273 FrameData[57]
*274 FrameData[58]
*275 FrameData[59]
*276 FrameData[5]
*277 FrameData[60]
*278 FrameData[61]
*279 FrameData[62]
*280 FrameData[63]
*281 FrameData[64]
*282 FrameData[65]
*283 FrameData[66]
*284 FrameData[67]
*285 FrameData[68]
*286 FrameData[69]
*287 FrameData[6]
*288 FrameData[70]
*289 FrameData[71]
*290 FrameData[72]
*291 FrameData[73]
*292 FrameData[74]
*293 FrameData[75]
*294 FrameData[76]
*295 FrameData[77]
*296 FrameData[78]
*297 FrameData[79]
*298 FrameData[7]
*299 FrameData[80]
*300 FrameData[81]
*301 FrameData[82]
*302 FrameData[83]
*303 FrameData[84]
*304 FrameData[85]
*305 FrameData[86]
*306 FrameData[87]
*307 FrameData[88]
*308 FrameData[89]
*309 FrameData[8]
*310 FrameData[90]
*311 FrameData[91]
*312 FrameData[92]
*313 FrameData[93]
*314 FrameData[94]
*315 FrameData[95]
*316 FrameData[96]
*317 FrameData[97]
*318 FrameData[98]
*319 FrameData[99]
*320 FrameData[9]
*321 FrameStrobe[0]
*322 FrameStrobe[100]
*323 FrameStrobe[101]
*324 FrameStrobe[102]
*325 FrameStrobe[103]
*326 FrameStrobe[104]
*327 FrameStrobe[105]
*328 FrameStrobe[106]
*329 FrameStrobe[107]
*330 FrameStrobe[108]
*331 FrameStrobe[109]
*332 FrameStrobe[10]
*333 FrameStrobe[110]
*334 FrameStrobe[111]
*335 FrameStrobe[112]
*336 FrameStrobe[113]
*337 FrameStrobe[114]
*338 FrameStrobe[115]
*339 FrameStrobe[116]
*340 FrameStrobe[117]
*341 FrameStrobe[118]
*342 FrameStrobe[119]
*343 FrameStrobe[11]
*344 FrameStrobe[12]
*345 FrameStrobe[13]
*346 FrameStrobe[14]
*347 FrameStrobe[15]
*348 FrameStrobe[16]
*349 FrameStrobe[17]
*350 FrameStrobe[18]
*351 FrameStrobe[19]
*352 FrameStrobe[1]
*353 FrameStrobe[20]
*354 FrameStrobe[21]
*355 FrameStrobe[22]
*356 FrameStrobe[23]
*357 FrameStrobe[24]
*358 FrameStrobe[25]
*359 FrameStrobe[26]
*360 FrameStrobe[27]
*361 FrameStrobe[28]
*362 FrameStrobe[29]
*363 FrameStrobe[2]
*364 FrameStrobe[30]
*365 FrameStrobe[31]
*366 FrameStrobe[32]
*367 FrameStrobe[33]
*368 FrameStrobe[34]
*369 FrameStrobe[35]
*370 FrameStrobe[36]
*371 FrameStrobe[37]
*372 FrameStrobe[38]
*373 FrameStrobe[39]
*374 FrameStrobe[3]
*375 FrameStrobe[40]
*376 FrameStrobe[41]
*377 FrameStrobe[42]
*378 FrameStrobe[43]
*379 FrameStrobe[44]
*380 FrameStrobe[45]
*381 FrameStrobe[46]
*382 FrameStrobe[47]
*383 FrameStrobe[48]
*384 FrameStrobe[49]
*385 FrameStrobe[4]
*386 FrameStrobe[50]
*387 FrameStrobe[51]
*388 FrameStrobe[52]
*389 FrameStrobe[53]
*390 FrameStrobe[54]
*391 FrameStrobe[55]
*392 FrameStrobe[56]
*393 FrameStrobe[57]
*394 FrameStrobe[58]
*395 FrameStrobe[59]
*396 FrameStrobe[5]
*397 FrameStrobe[60]
*398 FrameStrobe[61]
*399 FrameStrobe[62]
*400 FrameStrobe[63]
*401 FrameStrobe[64]
*402 FrameStrobe[65]
*403 FrameStrobe[66]
*404 FrameStrobe[67]
*405 FrameStrobe[68]
*406 FrameStrobe[69]
*407 FrameStrobe[6]
*408 FrameStrobe[70]
*409 FrameStrobe[71]
*410 FrameStrobe[72]
*411 FrameStrobe[73]
*412 FrameStrobe[74]
*413 FrameStrobe[75]
*414 FrameStrobe[76]
*415 FrameStrobe[77]
*416 FrameStrobe[78]
*417 FrameStrobe[79]
*418 FrameStrobe[7]
*419 FrameStrobe[80]
*420 FrameStrobe[81]
*421 FrameStrobe[82]
*422 FrameStrobe[83]
*423 FrameStrobe[84]
*424 FrameStrobe[85]
*425 FrameStrobe[86]
*426 FrameStrobe[87]
*427 FrameStrobe[88]
*428 FrameStrobe[89]
*429 FrameStrobe[8]
*430 FrameStrobe[90]
*431 FrameStrobe[91]
*432 FrameStrobe[92]
*433 FrameStrobe[93]
*434 FrameStrobe[94]
*435 FrameStrobe[95]
*436 FrameStrobe[96]
*437 FrameStrobe[97]
*438 FrameStrobe[98]
*439 FrameStrobe[99]
*440 FrameStrobe[9]
*441 Tile_X0Y2_CLK_TT_PROJECT
*442 Tile_X0Y2_ENA_TT_PROJECT
*443 Tile_X0Y2_RST_N_TT_PROJECT
*444 Tile_X0Y2_UIO_IN_TT_PROJECT0
*445 Tile_X0Y2_UIO_IN_TT_PROJECT1
*446 Tile_X0Y2_UIO_IN_TT_PROJECT2
*447 Tile_X0Y2_UIO_IN_TT_PROJECT3
*448 Tile_X0Y2_UIO_IN_TT_PROJECT4
*449 Tile_X0Y2_UIO_IN_TT_PROJECT5
*450 Tile_X0Y2_UIO_IN_TT_PROJECT6
*451 Tile_X0Y2_UIO_IN_TT_PROJECT7
*452 Tile_X0Y2_UIO_OE_TT_PROJECT0
*453 Tile_X0Y2_UIO_OE_TT_PROJECT1
*454 Tile_X0Y2_UIO_OE_TT_PROJECT2
*455 Tile_X0Y2_UIO_OE_TT_PROJECT3
*456 Tile_X0Y2_UIO_OE_TT_PROJECT4
*457 Tile_X0Y2_UIO_OE_TT_PROJECT5
*458 Tile_X0Y2_UIO_OE_TT_PROJECT6
*459 Tile_X0Y2_UIO_OE_TT_PROJECT7
*460 Tile_X0Y2_UIO_OUT_TT_PROJECT0
*461 Tile_X0Y2_UIO_OUT_TT_PROJECT1
*462 Tile_X0Y2_UIO_OUT_TT_PROJECT2
*463 Tile_X0Y2_UIO_OUT_TT_PROJECT3
*464 Tile_X0Y2_UIO_OUT_TT_PROJECT4
*465 Tile_X0Y2_UIO_OUT_TT_PROJECT5
*466 Tile_X0Y2_UIO_OUT_TT_PROJECT6
*467 Tile_X0Y2_UIO_OUT_TT_PROJECT7
*468 Tile_X0Y2_UI_IN_TT_PROJECT0
*469 Tile_X0Y2_UI_IN_TT_PROJECT1
*470 Tile_X0Y2_UI_IN_TT_PROJECT2
*471 Tile_X0Y2_UI_IN_TT_PROJECT3
*472 Tile_X0Y2_UI_IN_TT_PROJECT4
*473 Tile_X0Y2_UI_IN_TT_PROJECT5
*474 Tile_X0Y2_UI_IN_TT_PROJECT6
*475 Tile_X0Y2_UI_IN_TT_PROJECT7
*476 Tile_X0Y2_UO_OUT_TT_PROJECT0
*477 Tile_X0Y2_UO_OUT_TT_PROJECT1
*478 Tile_X0Y2_UO_OUT_TT_PROJECT2
*479 Tile_X0Y2_UO_OUT_TT_PROJECT3
*480 Tile_X0Y2_UO_OUT_TT_PROJECT4
*481 Tile_X0Y2_UO_OUT_TT_PROJECT5
*482 Tile_X0Y2_UO_OUT_TT_PROJECT6
*483 Tile_X0Y2_UO_OUT_TT_PROJECT7
*484 Tile_X0Y3_CLK_TT_PROJECT
*485 Tile_X0Y3_ENA_TT_PROJECT
*486 Tile_X0Y3_RST_N_TT_PROJECT
*487 Tile_X0Y3_UIO_IN_TT_PROJECT0
*488 Tile_X0Y3_UIO_IN_TT_PROJECT1
*489 Tile_X0Y3_UIO_IN_TT_PROJECT2
*490 Tile_X0Y3_UIO_IN_TT_PROJECT3
*491 Tile_X0Y3_UIO_IN_TT_PROJECT4
*492 Tile_X0Y3_UIO_IN_TT_PROJECT5
*493 Tile_X0Y3_UIO_IN_TT_PROJECT6
*494 Tile_X0Y3_UIO_IN_TT_PROJECT7
*495 Tile_X0Y3_UIO_OE_TT_PROJECT0
*496 Tile_X0Y3_UIO_OE_TT_PROJECT1
*497 Tile_X0Y3_UIO_OE_TT_PROJECT2
*498 Tile_X0Y3_UIO_OE_TT_PROJECT3
*499 Tile_X0Y3_UIO_OE_TT_PROJECT4
*500 Tile_X0Y3_UIO_OE_TT_PROJECT5
*501 Tile_X0Y3_UIO_OE_TT_PROJECT6
*502 Tile_X0Y3_UIO_OE_TT_PROJECT7
*503 Tile_X0Y3_UIO_OUT_TT_PROJECT0
*504 Tile_X0Y3_UIO_OUT_TT_PROJECT1
*505 Tile_X0Y3_UIO_OUT_TT_PROJECT2
*506 Tile_X0Y3_UIO_OUT_TT_PROJECT3
*507 Tile_X0Y3_UIO_OUT_TT_PROJECT4
*508 Tile_X0Y3_UIO_OUT_TT_PROJECT5
*509 Tile_X0Y3_UIO_OUT_TT_PROJECT6
*510 Tile_X0Y3_UIO_OUT_TT_PROJECT7
*511 Tile_X0Y3_UI_IN_TT_PROJECT0
*512 Tile_X0Y3_UI_IN_TT_PROJECT1
*513 Tile_X0Y3_UI_IN_TT_PROJECT2
*514 Tile_X0Y3_UI_IN_TT_PROJECT3
*515 Tile_X0Y3_UI_IN_TT_PROJECT4
*516 Tile_X0Y3_UI_IN_TT_PROJECT5
*517 Tile_X0Y3_UI_IN_TT_PROJECT6
*518 Tile_X0Y3_UI_IN_TT_PROJECT7
*519 Tile_X0Y3_UO_OUT_TT_PROJECT0
*520 Tile_X0Y3_UO_OUT_TT_PROJECT1
*521 Tile_X0Y3_UO_OUT_TT_PROJECT2
*522 Tile_X0Y3_UO_OUT_TT_PROJECT3
*523 Tile_X0Y3_UO_OUT_TT_PROJECT4
*524 Tile_X0Y3_UO_OUT_TT_PROJECT5
*525 Tile_X0Y3_UO_OUT_TT_PROJECT6
*526 Tile_X0Y3_UO_OUT_TT_PROJECT7
*527 Tile_X0Y4_CLK_TT_PROJECT
*528 Tile_X0Y4_ENA_TT_PROJECT
*529 Tile_X0Y4_RST_N_TT_PROJECT
*530 Tile_X0Y4_UIO_IN_TT_PROJECT0
*531 Tile_X0Y4_UIO_IN_TT_PROJECT1
*532 Tile_X0Y4_UIO_IN_TT_PROJECT2
*533 Tile_X0Y4_UIO_IN_TT_PROJECT3
*534 Tile_X0Y4_UIO_IN_TT_PROJECT4
*535 Tile_X0Y4_UIO_IN_TT_PROJECT5
*536 Tile_X0Y4_UIO_IN_TT_PROJECT6
*537 Tile_X0Y4_UIO_IN_TT_PROJECT7
*538 Tile_X0Y4_UIO_OE_TT_PROJECT0
*539 Tile_X0Y4_UIO_OE_TT_PROJECT1
*540 Tile_X0Y4_UIO_OE_TT_PROJECT2
*541 Tile_X0Y4_UIO_OE_TT_PROJECT3
*542 Tile_X0Y4_UIO_OE_TT_PROJECT4
*543 Tile_X0Y4_UIO_OE_TT_PROJECT5
*544 Tile_X0Y4_UIO_OE_TT_PROJECT6
*545 Tile_X0Y4_UIO_OE_TT_PROJECT7
*546 Tile_X0Y4_UIO_OUT_TT_PROJECT0
*547 Tile_X0Y4_UIO_OUT_TT_PROJECT1
*548 Tile_X0Y4_UIO_OUT_TT_PROJECT2
*549 Tile_X0Y4_UIO_OUT_TT_PROJECT3
*550 Tile_X0Y4_UIO_OUT_TT_PROJECT4
*551 Tile_X0Y4_UIO_OUT_TT_PROJECT5
*552 Tile_X0Y4_UIO_OUT_TT_PROJECT6
*553 Tile_X0Y4_UIO_OUT_TT_PROJECT7
*554 Tile_X0Y4_UI_IN_TT_PROJECT0
*555 Tile_X0Y4_UI_IN_TT_PROJECT1
*556 Tile_X0Y4_UI_IN_TT_PROJECT2
*557 Tile_X0Y4_UI_IN_TT_PROJECT3
*558 Tile_X0Y4_UI_IN_TT_PROJECT4
*559 Tile_X0Y4_UI_IN_TT_PROJECT5
*560 Tile_X0Y4_UI_IN_TT_PROJECT6
*561 Tile_X0Y4_UI_IN_TT_PROJECT7
*562 Tile_X0Y4_UO_OUT_TT_PROJECT0
*563 Tile_X0Y4_UO_OUT_TT_PROJECT1
*564 Tile_X0Y4_UO_OUT_TT_PROJECT2
*565 Tile_X0Y4_UO_OUT_TT_PROJECT3
*566 Tile_X0Y4_UO_OUT_TT_PROJECT4
*567 Tile_X0Y4_UO_OUT_TT_PROJECT5
*568 Tile_X0Y4_UO_OUT_TT_PROJECT6
*569 Tile_X0Y4_UO_OUT_TT_PROJECT7
*570 Tile_X0Y5_CLK_TT_PROJECT
*571 Tile_X0Y5_ENA_TT_PROJECT
*572 Tile_X0Y5_RST_N_TT_PROJECT
*573 Tile_X0Y5_UIO_IN_TT_PROJECT0
*574 Tile_X0Y5_UIO_IN_TT_PROJECT1
*575 Tile_X0Y5_UIO_IN_TT_PROJECT2
*576 Tile_X0Y5_UIO_IN_TT_PROJECT3
*577 Tile_X0Y5_UIO_IN_TT_PROJECT4
*578 Tile_X0Y5_UIO_IN_TT_PROJECT5
*579 Tile_X0Y5_UIO_IN_TT_PROJECT6
*580 Tile_X0Y5_UIO_IN_TT_PROJECT7
*581 Tile_X0Y5_UIO_OE_TT_PROJECT0
*582 Tile_X0Y5_UIO_OE_TT_PROJECT1
*583 Tile_X0Y5_UIO_OE_TT_PROJECT2
*584 Tile_X0Y5_UIO_OE_TT_PROJECT3
*585 Tile_X0Y5_UIO_OE_TT_PROJECT4
*586 Tile_X0Y5_UIO_OE_TT_PROJECT5
*587 Tile_X0Y5_UIO_OE_TT_PROJECT6
*588 Tile_X0Y5_UIO_OE_TT_PROJECT7
*589 Tile_X0Y5_UIO_OUT_TT_PROJECT0
*590 Tile_X0Y5_UIO_OUT_TT_PROJECT1
*591 Tile_X0Y5_UIO_OUT_TT_PROJECT2
*592 Tile_X0Y5_UIO_OUT_TT_PROJECT3
*593 Tile_X0Y5_UIO_OUT_TT_PROJECT4
*594 Tile_X0Y5_UIO_OUT_TT_PROJECT5
*595 Tile_X0Y5_UIO_OUT_TT_PROJECT6
*596 Tile_X0Y5_UIO_OUT_TT_PROJECT7
*597 Tile_X0Y5_UI_IN_TT_PROJECT0
*598 Tile_X0Y5_UI_IN_TT_PROJECT1
*599 Tile_X0Y5_UI_IN_TT_PROJECT2
*600 Tile_X0Y5_UI_IN_TT_PROJECT3
*601 Tile_X0Y5_UI_IN_TT_PROJECT4
*602 Tile_X0Y5_UI_IN_TT_PROJECT5
*603 Tile_X0Y5_UI_IN_TT_PROJECT6
*604 Tile_X0Y5_UI_IN_TT_PROJECT7
*605 Tile_X0Y5_UO_OUT_TT_PROJECT0
*606 Tile_X0Y5_UO_OUT_TT_PROJECT1
*607 Tile_X0Y5_UO_OUT_TT_PROJECT2
*608 Tile_X0Y5_UO_OUT_TT_PROJECT3
*609 Tile_X0Y5_UO_OUT_TT_PROJECT4
*610 Tile_X0Y5_UO_OUT_TT_PROJECT5
*611 Tile_X0Y5_UO_OUT_TT_PROJECT6
*612 Tile_X0Y5_UO_OUT_TT_PROJECT7
*613 Tile_X0Y6_CLK_TT_PROJECT
*614 Tile_X0Y6_ENA_TT_PROJECT
*615 Tile_X0Y6_RST_N_TT_PROJECT
*616 Tile_X0Y6_UIO_IN_TT_PROJECT0
*617 Tile_X0Y6_UIO_IN_TT_PROJECT1
*618 Tile_X0Y6_UIO_IN_TT_PROJECT2
*619 Tile_X0Y6_UIO_IN_TT_PROJECT3
*620 Tile_X0Y6_UIO_IN_TT_PROJECT4
*621 Tile_X0Y6_UIO_IN_TT_PROJECT5
*622 Tile_X0Y6_UIO_IN_TT_PROJECT6
*623 Tile_X0Y6_UIO_IN_TT_PROJECT7
*624 Tile_X0Y6_UIO_OE_TT_PROJECT0
*625 Tile_X0Y6_UIO_OE_TT_PROJECT1
*626 Tile_X0Y6_UIO_OE_TT_PROJECT2
*627 Tile_X0Y6_UIO_OE_TT_PROJECT3
*628 Tile_X0Y6_UIO_OE_TT_PROJECT4
*629 Tile_X0Y6_UIO_OE_TT_PROJECT5
*630 Tile_X0Y6_UIO_OE_TT_PROJECT6
*631 Tile_X0Y6_UIO_OE_TT_PROJECT7
*632 Tile_X0Y6_UIO_OUT_TT_PROJECT0
*633 Tile_X0Y6_UIO_OUT_TT_PROJECT1
*634 Tile_X0Y6_UIO_OUT_TT_PROJECT2
*635 Tile_X0Y6_UIO_OUT_TT_PROJECT3
*636 Tile_X0Y6_UIO_OUT_TT_PROJECT4
*637 Tile_X0Y6_UIO_OUT_TT_PROJECT5
*638 Tile_X0Y6_UIO_OUT_TT_PROJECT6
*639 Tile_X0Y6_UIO_OUT_TT_PROJECT7
*640 Tile_X0Y6_UI_IN_TT_PROJECT0
*641 Tile_X0Y6_UI_IN_TT_PROJECT1
*642 Tile_X0Y6_UI_IN_TT_PROJECT2
*643 Tile_X0Y6_UI_IN_TT_PROJECT3
*644 Tile_X0Y6_UI_IN_TT_PROJECT4
*645 Tile_X0Y6_UI_IN_TT_PROJECT5
*646 Tile_X0Y6_UI_IN_TT_PROJECT6
*647 Tile_X0Y6_UI_IN_TT_PROJECT7
*648 Tile_X0Y6_UO_OUT_TT_PROJECT0
*649 Tile_X0Y6_UO_OUT_TT_PROJECT1
*650 Tile_X0Y6_UO_OUT_TT_PROJECT2
*651 Tile_X0Y6_UO_OUT_TT_PROJECT3
*652 Tile_X0Y6_UO_OUT_TT_PROJECT4
*653 Tile_X0Y6_UO_OUT_TT_PROJECT5
*654 Tile_X0Y6_UO_OUT_TT_PROJECT6
*655 Tile_X0Y6_UO_OUT_TT_PROJECT7
*656 Tile_X0Y7_CLK_TT_PROJECT
*657 Tile_X0Y7_ENA_TT_PROJECT
*658 Tile_X0Y7_RST_N_TT_PROJECT
*659 Tile_X0Y7_UIO_IN_TT_PROJECT0
*660 Tile_X0Y7_UIO_IN_TT_PROJECT1
*661 Tile_X0Y7_UIO_IN_TT_PROJECT2
*662 Tile_X0Y7_UIO_IN_TT_PROJECT3
*663 Tile_X0Y7_UIO_IN_TT_PROJECT4
*664 Tile_X0Y7_UIO_IN_TT_PROJECT5
*665 Tile_X0Y7_UIO_IN_TT_PROJECT6
*666 Tile_X0Y7_UIO_IN_TT_PROJECT7
*667 Tile_X0Y7_UIO_OE_TT_PROJECT0
*668 Tile_X0Y7_UIO_OE_TT_PROJECT1
*669 Tile_X0Y7_UIO_OE_TT_PROJECT2
*670 Tile_X0Y7_UIO_OE_TT_PROJECT3
*671 Tile_X0Y7_UIO_OE_TT_PROJECT4
*672 Tile_X0Y7_UIO_OE_TT_PROJECT5
*673 Tile_X0Y7_UIO_OE_TT_PROJECT6
*674 Tile_X0Y7_UIO_OE_TT_PROJECT7
*675 Tile_X0Y7_UIO_OUT_TT_PROJECT0
*676 Tile_X0Y7_UIO_OUT_TT_PROJECT1
*677 Tile_X0Y7_UIO_OUT_TT_PROJECT2
*678 Tile_X0Y7_UIO_OUT_TT_PROJECT3
*679 Tile_X0Y7_UIO_OUT_TT_PROJECT4
*680 Tile_X0Y7_UIO_OUT_TT_PROJECT5
*681 Tile_X0Y7_UIO_OUT_TT_PROJECT6
*682 Tile_X0Y7_UIO_OUT_TT_PROJECT7
*683 Tile_X0Y7_UI_IN_TT_PROJECT0
*684 Tile_X0Y7_UI_IN_TT_PROJECT1
*685 Tile_X0Y7_UI_IN_TT_PROJECT2
*686 Tile_X0Y7_UI_IN_TT_PROJECT3
*687 Tile_X0Y7_UI_IN_TT_PROJECT4
*688 Tile_X0Y7_UI_IN_TT_PROJECT5
*689 Tile_X0Y7_UI_IN_TT_PROJECT6
*690 Tile_X0Y7_UI_IN_TT_PROJECT7
*691 Tile_X0Y7_UO_OUT_TT_PROJECT0
*692 Tile_X0Y7_UO_OUT_TT_PROJECT1
*693 Tile_X0Y7_UO_OUT_TT_PROJECT2
*694 Tile_X0Y7_UO_OUT_TT_PROJECT3
*695 Tile_X0Y7_UO_OUT_TT_PROJECT4
*696 Tile_X0Y7_UO_OUT_TT_PROJECT5
*697 Tile_X0Y7_UO_OUT_TT_PROJECT6
*698 Tile_X0Y7_UO_OUT_TT_PROJECT7
*699 Tile_X0Y8_CLK_TT_PROJECT
*700 Tile_X0Y8_ENA_TT_PROJECT
*701 Tile_X0Y8_RST_N_TT_PROJECT
*702 Tile_X0Y8_UIO_IN_TT_PROJECT0
*703 Tile_X0Y8_UIO_IN_TT_PROJECT1
*704 Tile_X0Y8_UIO_IN_TT_PROJECT2
*705 Tile_X0Y8_UIO_IN_TT_PROJECT3
*706 Tile_X0Y8_UIO_IN_TT_PROJECT4
*707 Tile_X0Y8_UIO_IN_TT_PROJECT5
*708 Tile_X0Y8_UIO_IN_TT_PROJECT6
*709 Tile_X0Y8_UIO_IN_TT_PROJECT7
*710 Tile_X0Y8_UIO_OE_TT_PROJECT0
*711 Tile_X0Y8_UIO_OE_TT_PROJECT1
*712 Tile_X0Y8_UIO_OE_TT_PROJECT2
*713 Tile_X0Y8_UIO_OE_TT_PROJECT3
*714 Tile_X0Y8_UIO_OE_TT_PROJECT4
*715 Tile_X0Y8_UIO_OE_TT_PROJECT5
*716 Tile_X0Y8_UIO_OE_TT_PROJECT6
*717 Tile_X0Y8_UIO_OE_TT_PROJECT7
*718 Tile_X0Y8_UIO_OUT_TT_PROJECT0
*719 Tile_X0Y8_UIO_OUT_TT_PROJECT1
*720 Tile_X0Y8_UIO_OUT_TT_PROJECT2
*721 Tile_X0Y8_UIO_OUT_TT_PROJECT3
*722 Tile_X0Y8_UIO_OUT_TT_PROJECT4
*723 Tile_X0Y8_UIO_OUT_TT_PROJECT5
*724 Tile_X0Y8_UIO_OUT_TT_PROJECT6
*725 Tile_X0Y8_UIO_OUT_TT_PROJECT7
*726 Tile_X0Y8_UI_IN_TT_PROJECT0
*727 Tile_X0Y8_UI_IN_TT_PROJECT1
*728 Tile_X0Y8_UI_IN_TT_PROJECT2
*729 Tile_X0Y8_UI_IN_TT_PROJECT3
*730 Tile_X0Y8_UI_IN_TT_PROJECT4
*731 Tile_X0Y8_UI_IN_TT_PROJECT5
*732 Tile_X0Y8_UI_IN_TT_PROJECT6
*733 Tile_X0Y8_UI_IN_TT_PROJECT7
*734 Tile_X0Y8_UO_OUT_TT_PROJECT0
*735 Tile_X0Y8_UO_OUT_TT_PROJECT1
*736 Tile_X0Y8_UO_OUT_TT_PROJECT2
*737 Tile_X0Y8_UO_OUT_TT_PROJECT3
*738 Tile_X0Y8_UO_OUT_TT_PROJECT4
*739 Tile_X0Y8_UO_OUT_TT_PROJECT5
*740 Tile_X0Y8_UO_OUT_TT_PROJECT6
*741 Tile_X0Y8_UO_OUT_TT_PROJECT7
*742 Tile_X1Y0_A_I_top
*743 Tile_X1Y0_A_O_top
*744 Tile_X1Y0_A_T_top
*745 Tile_X1Y0_B_I_top
*746 Tile_X1Y0_B_O_top
*747 Tile_X1Y0_B_T_top
*748 Tile_X1Y0_C_I_top
*749 Tile_X1Y0_C_O_top
*750 Tile_X1Y0_C_T_top
*751 Tile_X1Y0_D_I_top
*752 Tile_X1Y0_D_O_top
*753 Tile_X1Y0_D_T_top
*754 Tile_X1Y9_A_I_top
*755 Tile_X1Y9_A_O_top
*756 Tile_X1Y9_A_T_top
*757 Tile_X1Y9_B_I_top
*758 Tile_X1Y9_B_O_top
*759 Tile_X1Y9_B_T_top
*760 Tile_X1Y9_C_I_top
*761 Tile_X1Y9_C_O_top
*762 Tile_X1Y9_C_T_top
*763 Tile_X1Y9_D_I_top
*764 Tile_X1Y9_D_O_top
*765 Tile_X1Y9_D_T_top
*766 Tile_X2Y0_A_I_top
*767 Tile_X2Y0_A_O_top
*768 Tile_X2Y0_A_T_top
*769 Tile_X2Y0_B_I_top
*770 Tile_X2Y0_B_O_top
*771 Tile_X2Y0_B_T_top
*772 Tile_X2Y0_C_I_top
*773 Tile_X2Y0_C_O_top
*774 Tile_X2Y0_C_T_top
*775 Tile_X2Y0_D_I_top
*776 Tile_X2Y0_D_O_top
*777 Tile_X2Y0_D_T_top
*778 Tile_X2Y9_A_I_top
*779 Tile_X2Y9_A_O_top
*780 Tile_X2Y9_A_T_top
*781 Tile_X2Y9_B_I_top
*782 Tile_X2Y9_B_O_top
*783 Tile_X2Y9_B_T_top
*784 Tile_X2Y9_C_I_top
*785 Tile_X2Y9_C_O_top
*786 Tile_X2Y9_C_T_top
*787 Tile_X2Y9_D_I_top
*788 Tile_X2Y9_D_O_top
*789 Tile_X2Y9_D_T_top
*790 Tile_X3Y0_A_I_top
*791 Tile_X3Y0_A_O_top
*792 Tile_X3Y0_A_T_top
*793 Tile_X3Y0_B_I_top
*794 Tile_X3Y0_B_O_top
*795 Tile_X3Y0_B_T_top
*796 Tile_X3Y0_C_I_top
*797 Tile_X3Y0_C_O_top
*798 Tile_X3Y0_C_T_top
*799 Tile_X3Y0_D_I_top
*800 Tile_X3Y0_D_O_top
*801 Tile_X3Y0_D_T_top
*802 Tile_X3Y9_A_I_top
*803 Tile_X3Y9_A_O_top
*804 Tile_X3Y9_A_T_top
*805 Tile_X3Y9_B_I_top
*806 Tile_X3Y9_B_O_top
*807 Tile_X3Y9_B_T_top
*808 Tile_X3Y9_C_I_top
*809 Tile_X3Y9_C_O_top
*810 Tile_X3Y9_C_T_top
*811 Tile_X3Y9_D_I_top
*812 Tile_X3Y9_D_O_top
*813 Tile_X3Y9_D_T_top
*814 Tile_X4Y0_A_I_top
*815 Tile_X4Y0_A_O_top
*816 Tile_X4Y0_A_T_top
*817 Tile_X4Y0_B_I_top
*818 Tile_X4Y0_B_O_top
*819 Tile_X4Y0_B_T_top
*820 Tile_X4Y0_C_I_top
*821 Tile_X4Y0_C_O_top
*822 Tile_X4Y0_C_T_top
*823 Tile_X4Y0_D_I_top
*824 Tile_X4Y0_D_O_top
*825 Tile_X4Y0_D_T_top
*826 Tile_X4Y9_A_I_top
*827 Tile_X4Y9_A_O_top
*828 Tile_X4Y9_A_T_top
*829 Tile_X4Y9_B_I_top
*830 Tile_X4Y9_B_O_top
*831 Tile_X4Y9_B_T_top
*832 Tile_X4Y9_C_I_top
*833 Tile_X4Y9_C_O_top
*834 Tile_X4Y9_C_T_top
*835 Tile_X4Y9_D_I_top
*836 Tile_X4Y9_D_O_top
*837 Tile_X4Y9_D_T_top
*838 Tile_X5Y2_ADDR_SRAM0
*839 Tile_X5Y2_ADDR_SRAM1
*840 Tile_X5Y2_ADDR_SRAM2
*841 Tile_X5Y2_ADDR_SRAM3
*842 Tile_X5Y2_ADDR_SRAM4
*843 Tile_X5Y2_ADDR_SRAM5
*844 Tile_X5Y2_ADDR_SRAM6
*845 Tile_X5Y2_ADDR_SRAM7
*846 Tile_X5Y2_ADDR_SRAM8
*847 Tile_X5Y2_ADDR_SRAM9
*848 Tile_X5Y2_BM_SRAM0
*849 Tile_X5Y2_BM_SRAM1
*850 Tile_X5Y2_BM_SRAM10
*851 Tile_X5Y2_BM_SRAM11
*852 Tile_X5Y2_BM_SRAM12
*853 Tile_X5Y2_BM_SRAM13
*854 Tile_X5Y2_BM_SRAM14
*855 Tile_X5Y2_BM_SRAM15
*856 Tile_X5Y2_BM_SRAM16
*857 Tile_X5Y2_BM_SRAM17
*858 Tile_X5Y2_BM_SRAM18
*859 Tile_X5Y2_BM_SRAM19
*860 Tile_X5Y2_BM_SRAM2
*861 Tile_X5Y2_BM_SRAM20
*862 Tile_X5Y2_BM_SRAM21
*863 Tile_X5Y2_BM_SRAM22
*864 Tile_X5Y2_BM_SRAM23
*865 Tile_X5Y2_BM_SRAM24
*866 Tile_X5Y2_BM_SRAM25
*867 Tile_X5Y2_BM_SRAM26
*868 Tile_X5Y2_BM_SRAM27
*869 Tile_X5Y2_BM_SRAM28
*870 Tile_X5Y2_BM_SRAM29
*871 Tile_X5Y2_BM_SRAM3
*872 Tile_X5Y2_BM_SRAM30
*873 Tile_X5Y2_BM_SRAM31
*874 Tile_X5Y2_BM_SRAM4
*875 Tile_X5Y2_BM_SRAM5
*876 Tile_X5Y2_BM_SRAM6
*877 Tile_X5Y2_BM_SRAM7
*878 Tile_X5Y2_BM_SRAM8
*879 Tile_X5Y2_BM_SRAM9
*880 Tile_X5Y2_CLK_SRAM
*881 Tile_X5Y2_CONFIGURED_top
*882 Tile_X5Y2_DIN_SRAM0
*883 Tile_X5Y2_DIN_SRAM1
*884 Tile_X5Y2_DIN_SRAM10
*885 Tile_X5Y2_DIN_SRAM11
*886 Tile_X5Y2_DIN_SRAM12
*887 Tile_X5Y2_DIN_SRAM13
*888 Tile_X5Y2_DIN_SRAM14
*889 Tile_X5Y2_DIN_SRAM15
*890 Tile_X5Y2_DIN_SRAM16
*891 Tile_X5Y2_DIN_SRAM17
*892 Tile_X5Y2_DIN_SRAM18
*893 Tile_X5Y2_DIN_SRAM19
*894 Tile_X5Y2_DIN_SRAM2
*895 Tile_X5Y2_DIN_SRAM20
*896 Tile_X5Y2_DIN_SRAM21
*897 Tile_X5Y2_DIN_SRAM22
*898 Tile_X5Y2_DIN_SRAM23
*899 Tile_X5Y2_DIN_SRAM24
*900 Tile_X5Y2_DIN_SRAM25
*901 Tile_X5Y2_DIN_SRAM26
*902 Tile_X5Y2_DIN_SRAM27
*903 Tile_X5Y2_DIN_SRAM28
*904 Tile_X5Y2_DIN_SRAM29
*905 Tile_X5Y2_DIN_SRAM3
*906 Tile_X5Y2_DIN_SRAM30
*907 Tile_X5Y2_DIN_SRAM31
*908 Tile_X5Y2_DIN_SRAM4
*909 Tile_X5Y2_DIN_SRAM5
*910 Tile_X5Y2_DIN_SRAM6
*911 Tile_X5Y2_DIN_SRAM7
*912 Tile_X5Y2_DIN_SRAM8
*913 Tile_X5Y2_DIN_SRAM9
*914 Tile_X5Y2_DOUT_SRAM0
*915 Tile_X5Y2_DOUT_SRAM1
*916 Tile_X5Y2_DOUT_SRAM10
*917 Tile_X5Y2_DOUT_SRAM11
*918 Tile_X5Y2_DOUT_SRAM12
*919 Tile_X5Y2_DOUT_SRAM13
*920 Tile_X5Y2_DOUT_SRAM14
*921 Tile_X5Y2_DOUT_SRAM15
*922 Tile_X5Y2_DOUT_SRAM16
*923 Tile_X5Y2_DOUT_SRAM17
*924 Tile_X5Y2_DOUT_SRAM18
*925 Tile_X5Y2_DOUT_SRAM19
*926 Tile_X5Y2_DOUT_SRAM2
*927 Tile_X5Y2_DOUT_SRAM20
*928 Tile_X5Y2_DOUT_SRAM21
*929 Tile_X5Y2_DOUT_SRAM22
*930 Tile_X5Y2_DOUT_SRAM23
*931 Tile_X5Y2_DOUT_SRAM24
*932 Tile_X5Y2_DOUT_SRAM25
*933 Tile_X5Y2_DOUT_SRAM26
*934 Tile_X5Y2_DOUT_SRAM27
*935 Tile_X5Y2_DOUT_SRAM28
*936 Tile_X5Y2_DOUT_SRAM29
*937 Tile_X5Y2_DOUT_SRAM3
*938 Tile_X5Y2_DOUT_SRAM30
*939 Tile_X5Y2_DOUT_SRAM31
*940 Tile_X5Y2_DOUT_SRAM4
*941 Tile_X5Y2_DOUT_SRAM5
*942 Tile_X5Y2_DOUT_SRAM6
*943 Tile_X5Y2_DOUT_SRAM7
*944 Tile_X5Y2_DOUT_SRAM8
*945 Tile_X5Y2_DOUT_SRAM9
*946 Tile_X5Y2_MEN_SRAM
*947 Tile_X5Y2_REN_SRAM
*948 Tile_X5Y2_TIE_HIGH_SRAM
*949 Tile_X5Y2_TIE_LOW_SRAM
*950 Tile_X5Y2_WEN_SRAM
*951 Tile_X5Y4_CLK_TT_PROJECT
*952 Tile_X5Y4_ENA_TT_PROJECT
*953 Tile_X5Y4_RST_N_TT_PROJECT
*954 Tile_X5Y4_UIO_IN_TT_PROJECT0
*955 Tile_X5Y4_UIO_IN_TT_PROJECT1
*956 Tile_X5Y4_UIO_IN_TT_PROJECT2
*957 Tile_X5Y4_UIO_IN_TT_PROJECT3
*958 Tile_X5Y4_UIO_IN_TT_PROJECT4
*959 Tile_X5Y4_UIO_IN_TT_PROJECT5
*960 Tile_X5Y4_UIO_IN_TT_PROJECT6
*961 Tile_X5Y4_UIO_IN_TT_PROJECT7
*962 Tile_X5Y4_UIO_OE_TT_PROJECT0
*963 Tile_X5Y4_UIO_OE_TT_PROJECT1
*964 Tile_X5Y4_UIO_OE_TT_PROJECT2
*965 Tile_X5Y4_UIO_OE_TT_PROJECT3
*966 Tile_X5Y4_UIO_OE_TT_PROJECT4
*967 Tile_X5Y4_UIO_OE_TT_PROJECT5
*968 Tile_X5Y4_UIO_OE_TT_PROJECT6
*969 Tile_X5Y4_UIO_OE_TT_PROJECT7
*970 Tile_X5Y4_UIO_OUT_TT_PROJECT0
*971 Tile_X5Y4_UIO_OUT_TT_PROJECT1
*972 Tile_X5Y4_UIO_OUT_TT_PROJECT2
*973 Tile_X5Y4_UIO_OUT_TT_PROJECT3
*974 Tile_X5Y4_UIO_OUT_TT_PROJECT4
*975 Tile_X5Y4_UIO_OUT_TT_PROJECT5
*976 Tile_X5Y4_UIO_OUT_TT_PROJECT6
*977 Tile_X5Y4_UIO_OUT_TT_PROJECT7
*978 Tile_X5Y4_UI_IN_TT_PROJECT0
*979 Tile_X5Y4_UI_IN_TT_PROJECT1
*980 Tile_X5Y4_UI_IN_TT_PROJECT2
*981 Tile_X5Y4_UI_IN_TT_PROJECT3
*982 Tile_X5Y4_UI_IN_TT_PROJECT4
*983 Tile_X5Y4_UI_IN_TT_PROJECT5
*984 Tile_X5Y4_UI_IN_TT_PROJECT6
*985 Tile_X5Y4_UI_IN_TT_PROJECT7
*986 Tile_X5Y4_UO_OUT_TT_PROJECT0
*987 Tile_X5Y4_UO_OUT_TT_PROJECT1
*988 Tile_X5Y4_UO_OUT_TT_PROJECT2
*989 Tile_X5Y4_UO_OUT_TT_PROJECT3
*990 Tile_X5Y4_UO_OUT_TT_PROJECT4
*991 Tile_X5Y4_UO_OUT_TT_PROJECT5
*992 Tile_X5Y4_UO_OUT_TT_PROJECT6
*993 Tile_X5Y4_UO_OUT_TT_PROJECT7
*994 Tile_X5Y5_CLK_TT_PROJECT
*995 Tile_X5Y5_ENA_TT_PROJECT
*996 Tile_X5Y5_RST_N_TT_PROJECT
*997 Tile_X5Y5_UIO_IN_TT_PROJECT0
*998 Tile_X5Y5_UIO_IN_TT_PROJECT1
*999 Tile_X5Y5_UIO_IN_TT_PROJECT2
*1000 Tile_X5Y5_UIO_IN_TT_PROJECT3
*1001 Tile_X5Y5_UIO_IN_TT_PROJECT4
*1002 Tile_X5Y5_UIO_IN_TT_PROJECT5
*1003 Tile_X5Y5_UIO_IN_TT_PROJECT6
*1004 Tile_X5Y5_UIO_IN_TT_PROJECT7
*1005 Tile_X5Y5_UIO_OE_TT_PROJECT0
*1006 Tile_X5Y5_UIO_OE_TT_PROJECT1
*1007 Tile_X5Y5_UIO_OE_TT_PROJECT2
*1008 Tile_X5Y5_UIO_OE_TT_PROJECT3
*1009 Tile_X5Y5_UIO_OE_TT_PROJECT4
*1010 Tile_X5Y5_UIO_OE_TT_PROJECT5
*1011 Tile_X5Y5_UIO_OE_TT_PROJECT6
*1012 Tile_X5Y5_UIO_OE_TT_PROJECT7
*1013 Tile_X5Y5_UIO_OUT_TT_PROJECT0
*1014 Tile_X5Y5_UIO_OUT_TT_PROJECT1
*1015 Tile_X5Y5_UIO_OUT_TT_PROJECT2
*1016 Tile_X5Y5_UIO_OUT_TT_PROJECT3
*1017 Tile_X5Y5_UIO_OUT_TT_PROJECT4
*1018 Tile_X5Y5_UIO_OUT_TT_PROJECT5
*1019 Tile_X5Y5_UIO_OUT_TT_PROJECT6
*1020 Tile_X5Y5_UIO_OUT_TT_PROJECT7
*1021 Tile_X5Y5_UI_IN_TT_PROJECT0
*1022 Tile_X5Y5_UI_IN_TT_PROJECT1
*1023 Tile_X5Y5_UI_IN_TT_PROJECT2
*1024 Tile_X5Y5_UI_IN_TT_PROJECT3
*1025 Tile_X5Y5_UI_IN_TT_PROJECT4
*1026 Tile_X5Y5_UI_IN_TT_PROJECT5
*1027 Tile_X5Y5_UI_IN_TT_PROJECT6
*1028 Tile_X5Y5_UI_IN_TT_PROJECT7
*1029 Tile_X5Y5_UO_OUT_TT_PROJECT0
*1030 Tile_X5Y5_UO_OUT_TT_PROJECT1
*1031 Tile_X5Y5_UO_OUT_TT_PROJECT2
*1032 Tile_X5Y5_UO_OUT_TT_PROJECT3
*1033 Tile_X5Y5_UO_OUT_TT_PROJECT4
*1034 Tile_X5Y5_UO_OUT_TT_PROJECT5
*1035 Tile_X5Y5_UO_OUT_TT_PROJECT6
*1036 Tile_X5Y5_UO_OUT_TT_PROJECT7
*1037 Tile_X5Y6_CLK_TT_PROJECT
*1038 Tile_X5Y6_ENA_TT_PROJECT
*1039 Tile_X5Y6_RST_N_TT_PROJECT
*1040 Tile_X5Y6_UIO_IN_TT_PROJECT0
*1041 Tile_X5Y6_UIO_IN_TT_PROJECT1
*1042 Tile_X5Y6_UIO_IN_TT_PROJECT2
*1043 Tile_X5Y6_UIO_IN_TT_PROJECT3
*1044 Tile_X5Y6_UIO_IN_TT_PROJECT4
*1045 Tile_X5Y6_UIO_IN_TT_PROJECT5
*1046 Tile_X5Y6_UIO_IN_TT_PROJECT6
*1047 Tile_X5Y6_UIO_IN_TT_PROJECT7
*1048 Tile_X5Y6_UIO_OE_TT_PROJECT0
*1049 Tile_X5Y6_UIO_OE_TT_PROJECT1
*1050 Tile_X5Y6_UIO_OE_TT_PROJECT2
*1051 Tile_X5Y6_UIO_OE_TT_PROJECT3
*1052 Tile_X5Y6_UIO_OE_TT_PROJECT4
*1053 Tile_X5Y6_UIO_OE_TT_PROJECT5
*1054 Tile_X5Y6_UIO_OE_TT_PROJECT6
*1055 Tile_X5Y6_UIO_OE_TT_PROJECT7
*1056 Tile_X5Y6_UIO_OUT_TT_PROJECT0
*1057 Tile_X5Y6_UIO_OUT_TT_PROJECT1
*1058 Tile_X5Y6_UIO_OUT_TT_PROJECT2
*1059 Tile_X5Y6_UIO_OUT_TT_PROJECT3
*1060 Tile_X5Y6_UIO_OUT_TT_PROJECT4
*1061 Tile_X5Y6_UIO_OUT_TT_PROJECT5
*1062 Tile_X5Y6_UIO_OUT_TT_PROJECT6
*1063 Tile_X5Y6_UIO_OUT_TT_PROJECT7
*1064 Tile_X5Y6_UI_IN_TT_PROJECT0
*1065 Tile_X5Y6_UI_IN_TT_PROJECT1
*1066 Tile_X5Y6_UI_IN_TT_PROJECT2
*1067 Tile_X5Y6_UI_IN_TT_PROJECT3
*1068 Tile_X5Y6_UI_IN_TT_PROJECT4
*1069 Tile_X5Y6_UI_IN_TT_PROJECT5
*1070 Tile_X5Y6_UI_IN_TT_PROJECT6
*1071 Tile_X5Y6_UI_IN_TT_PROJECT7
*1072 Tile_X5Y6_UO_OUT_TT_PROJECT0
*1073 Tile_X5Y6_UO_OUT_TT_PROJECT1
*1074 Tile_X5Y6_UO_OUT_TT_PROJECT2
*1075 Tile_X5Y6_UO_OUT_TT_PROJECT3
*1076 Tile_X5Y6_UO_OUT_TT_PROJECT4
*1077 Tile_X5Y6_UO_OUT_TT_PROJECT5
*1078 Tile_X5Y6_UO_OUT_TT_PROJECT6
*1079 Tile_X5Y6_UO_OUT_TT_PROJECT7
*1080 Tile_X5Y7_CLK_TT_PROJECT
*1081 Tile_X5Y7_ENA_TT_PROJECT
*1082 Tile_X5Y7_RST_N_TT_PROJECT
*1083 Tile_X5Y7_UIO_IN_TT_PROJECT0
*1084 Tile_X5Y7_UIO_IN_TT_PROJECT1
*1085 Tile_X5Y7_UIO_IN_TT_PROJECT2
*1086 Tile_X5Y7_UIO_IN_TT_PROJECT3
*1087 Tile_X5Y7_UIO_IN_TT_PROJECT4
*1088 Tile_X5Y7_UIO_IN_TT_PROJECT5
*1089 Tile_X5Y7_UIO_IN_TT_PROJECT6
*1090 Tile_X5Y7_UIO_IN_TT_PROJECT7
*1091 Tile_X5Y7_UIO_OE_TT_PROJECT0
*1092 Tile_X5Y7_UIO_OE_TT_PROJECT1
*1093 Tile_X5Y7_UIO_OE_TT_PROJECT2
*1094 Tile_X5Y7_UIO_OE_TT_PROJECT3
*1095 Tile_X5Y7_UIO_OE_TT_PROJECT4
*1096 Tile_X5Y7_UIO_OE_TT_PROJECT5
*1097 Tile_X5Y7_UIO_OE_TT_PROJECT6
*1098 Tile_X5Y7_UIO_OE_TT_PROJECT7
*1099 Tile_X5Y7_UIO_OUT_TT_PROJECT0
*1100 Tile_X5Y7_UIO_OUT_TT_PROJECT1
*1101 Tile_X5Y7_UIO_OUT_TT_PROJECT2
*1102 Tile_X5Y7_UIO_OUT_TT_PROJECT3
*1103 Tile_X5Y7_UIO_OUT_TT_PROJECT4
*1104 Tile_X5Y7_UIO_OUT_TT_PROJECT5
*1105 Tile_X5Y7_UIO_OUT_TT_PROJECT6
*1106 Tile_X5Y7_UIO_OUT_TT_PROJECT7
*1107 Tile_X5Y7_UI_IN_TT_PROJECT0
*1108 Tile_X5Y7_UI_IN_TT_PROJECT1
*1109 Tile_X5Y7_UI_IN_TT_PROJECT2
*1110 Tile_X5Y7_UI_IN_TT_PROJECT3
*1111 Tile_X5Y7_UI_IN_TT_PROJECT4
*1112 Tile_X5Y7_UI_IN_TT_PROJECT5
*1113 Tile_X5Y7_UI_IN_TT_PROJECT6
*1114 Tile_X5Y7_UI_IN_TT_PROJECT7