* NGSPICE file created from E_TT_IF.ext - technology: ihp-sg13g2

* Black-box entry subcircuit for sg13g2_buf_1 abstract view
.subckt sg13g2_buf_1 A X VDD VSS
.ends

* Black-box entry subcircuit for sg13g2_inv_1 abstract view
.subckt sg13g2_inv_1 VDD Y A VSS
.ends

* Black-box entry subcircuit for sg13g2_dlhq_1 abstract view
.subckt sg13g2_dlhq_1 D GATE Q VDD VSS
.ends

* Black-box entry subcircuit for sg13g2_fill_1 abstract view
.subckt sg13g2_fill_1 VDD VSS
.ends

* Black-box entry subcircuit for sg13g2_mux2_1 abstract view
.subckt sg13g2_mux2_1 A0 A1 S X VDD VSS
.ends

* Black-box entry subcircuit for sg13g2_a21oi_1 abstract view
.subckt sg13g2_a21oi_1 VSS VDD A1 A2 Y B1
.ends

* Black-box entry subcircuit for sg13g2_mux4_1 abstract view
.subckt sg13g2_mux4_1 S0 A0 A1 A2 A3 S1 X VDD VSS
.ends

* Black-box entry subcircuit for sg13g2_fill_2 abstract view
.subckt sg13g2_fill_2 VDD VSS
.ends

* Black-box entry subcircuit for sg13g2_o21ai_1 abstract view
.subckt sg13g2_o21ai_1 B1 VDD Y VSS A1 A2
.ends

* Black-box entry subcircuit for sg13g2_nor2_1 abstract view
.subckt sg13g2_nor2_1 A B Y VDD VSS
.ends

* Black-box entry subcircuit for sg13g2_a22oi_1 abstract view
.subckt sg13g2_a22oi_1 Y B1 B2 A2 A1 VDD VSS
.ends

* Black-box entry subcircuit for sg13g2_antennanp abstract view
.subckt sg13g2_antennanp VDD VSS A
.ends

* Black-box entry subcircuit for sg13g2_a221oi_1 abstract view
.subckt sg13g2_a221oi_1 VDD VSS B2 C1 B1 A1 Y A2
.ends

* Black-box entry subcircuit for sg13g2_nor3_1 abstract view
.subckt sg13g2_nor3_1 A B C Y VDD VSS
.ends

* Black-box entry subcircuit for sg13g2_nand3_1 abstract view
.subckt sg13g2_nand3_1 B C A Y VDD VSS
.ends

* Black-box entry subcircuit for sg13g2_decap_8 abstract view
.subckt sg13g2_decap_8 VDD VSS
.ends

* Black-box entry subcircuit for sg13g2_nand2b_1 abstract view
.subckt sg13g2_nand2b_1 Y B A_N VDD VSS
.ends

* Black-box entry subcircuit for sg13g2_nor2b_1 abstract view
.subckt sg13g2_nor2b_1 A B_N Y VDD VSS
.ends

* Black-box entry subcircuit for sg13g2_nand2_1 abstract view
.subckt sg13g2_nand2_1 Y A B VDD VSS
.ends

* Black-box entry subcircuit for sg13g2_a21o_1 abstract view
.subckt sg13g2_a21o_1 A2 A1 B1 X VDD VSS
.ends

* Black-box entry subcircuit for sg13g2_buf_8 abstract view
.subckt sg13g2_buf_8 A X VDD VSS
.ends

* Black-box entry subcircuit for sg13g2_decap_4 abstract view
.subckt sg13g2_decap_4 VDD VSS
.ends

* Black-box entry subcircuit for sg13g2_or2_1 abstract view
.subckt sg13g2_or2_1 VSS VDD X B A
.ends

* Black-box entry subcircuit for sg13g2_and2_1 abstract view
.subckt sg13g2_and2_1 A B X VDD VSS
.ends

* Black-box entry subcircuit for sg13g2_nand3b_1 abstract view
.subckt sg13g2_nand3b_1 B C Y VDD VSS A_N
.ends

.subckt E_TT_IF CLK_TT_PROJECT E1END[0] E1END[1] E1END[2] E1END[3] E2END[0] E2END[1]
+ E2END[2] E2END[3] E2END[4] E2END[5] E2END[6] E2END[7] E2MID[0] E2MID[1] E2MID[2]
+ E2MID[3] E2MID[4] E2MID[5] E2MID[6] E2MID[7] E6END[0] E6END[10] E6END[11] E6END[1]
+ E6END[2] E6END[3] E6END[4] E6END[5] E6END[6] E6END[7] E6END[8] E6END[9] EE4END[0]
+ EE4END[10] EE4END[11] EE4END[12] EE4END[13] EE4END[14] EE4END[15] EE4END[1] EE4END[2]
+ EE4END[3] EE4END[4] EE4END[5] EE4END[6] EE4END[7] EE4END[8] EE4END[9] ENA_TT_PROJECT
+ FrameData[0] FrameData[10] FrameData[11] FrameData[12] FrameData[13] FrameData[14]
+ FrameData[15] FrameData[16] FrameData[17] FrameData[18] FrameData[19] FrameData[1]
+ FrameData[20] FrameData[21] FrameData[22] FrameData[23] FrameData[24] FrameData[25]
+ FrameData[26] FrameData[27] FrameData[28] FrameData[29] FrameData[2] FrameData[30]
+ FrameData[31] FrameData[3] FrameData[4] FrameData[5] FrameData[6] FrameData[7] FrameData[8]
+ FrameData[9] FrameData_O[0] FrameData_O[10] FrameData_O[11] FrameData_O[12] FrameData_O[13]
+ FrameData_O[14] FrameData_O[15] FrameData_O[16] FrameData_O[17] FrameData_O[18]
+ FrameData_O[19] FrameData_O[1] FrameData_O[20] FrameData_O[21] FrameData_O[22] FrameData_O[23]
+ FrameData_O[24] FrameData_O[25] FrameData_O[26] FrameData_O[27] FrameData_O[28]
+ FrameData_O[29] FrameData_O[2] FrameData_O[30] FrameData_O[31] FrameData_O[3] FrameData_O[4]
+ FrameData_O[5] FrameData_O[6] FrameData_O[7] FrameData_O[8] FrameData_O[9] FrameStrobe[0]
+ FrameStrobe[10] FrameStrobe[11] FrameStrobe[12] FrameStrobe[13] FrameStrobe[14]
+ FrameStrobe[15] FrameStrobe[16] FrameStrobe[17] FrameStrobe[18] FrameStrobe[19]
+ FrameStrobe[1] FrameStrobe[2] FrameStrobe[3] FrameStrobe[4] FrameStrobe[5] FrameStrobe[6]
+ FrameStrobe[7] FrameStrobe[8] FrameStrobe[9] FrameStrobe_O[0] FrameStrobe_O[10]
+ FrameStrobe_O[11] FrameStrobe_O[12] FrameStrobe_O[13] FrameStrobe_O[14] FrameStrobe_O[15]
+ FrameStrobe_O[16] FrameStrobe_O[17] FrameStrobe_O[18] FrameStrobe_O[19] FrameStrobe_O[1]
+ FrameStrobe_O[2] FrameStrobe_O[3] FrameStrobe_O[4] FrameStrobe_O[5] FrameStrobe_O[6]
+ FrameStrobe_O[7] FrameStrobe_O[8] FrameStrobe_O[9] N1BEG[0] N1BEG[1] N1BEG[2] N1BEG[3]
+ N1END[0] N1END[1] N1END[2] N1END[3] N2BEG[0] N2BEG[1] N2BEG[2] N2BEG[3] N2BEG[4]
+ N2BEG[5] N2BEG[6] N2BEG[7] N2BEGb[0] N2BEGb[1] N2BEGb[2] N2BEGb[3] N2BEGb[4] N2BEGb[5]
+ N2BEGb[6] N2BEGb[7] N2END[0] N2END[1] N2END[2] N2END[3] N2END[4] N2END[5] N2END[6]
+ N2END[7] N2MID[0] N2MID[1] N2MID[2] N2MID[3] N2MID[4] N2MID[5] N2MID[6] N2MID[7]
+ N4BEG[0] N4BEG[10] N4BEG[11] N4BEG[12] N4BEG[13] N4BEG[14] N4BEG[15] N4BEG[1] N4BEG[2]
+ N4BEG[3] N4BEG[4] N4BEG[5] N4BEG[6] N4BEG[7] N4BEG[8] N4BEG[9] N4END[0] N4END[10]
+ N4END[11] N4END[12] N4END[13] N4END[14] N4END[15] N4END[1] N4END[2] N4END[3] N4END[4]
+ N4END[5] N4END[6] N4END[7] N4END[8] N4END[9] RST_N_TT_PROJECT S1BEG[0] S1BEG[1]
+ S1BEG[2] S1BEG[3] S1END[0] S1END[1] S1END[2] S1END[3] S2BEG[0] S2BEG[1] S2BEG[2]
+ S2BEG[3] S2BEG[4] S2BEG[5] S2BEG[6] S2BEG[7] S2BEGb[0] S2BEGb[1] S2BEGb[2] S2BEGb[3]
+ S2BEGb[4] S2BEGb[5] S2BEGb[6] S2BEGb[7] S2END[0] S2END[1] S2END[2] S2END[3] S2END[4]
+ S2END[5] S2END[6] S2END[7] S2MID[0] S2MID[1] S2MID[2] S2MID[3] S2MID[4] S2MID[5]
+ S2MID[6] S2MID[7] S4BEG[0] S4BEG[10] S4BEG[11] S4BEG[12] S4BEG[13] S4BEG[14] S4BEG[15]
+ S4BEG[1] S4BEG[2] S4BEG[3] S4BEG[4] S4BEG[5] S4BEG[6] S4BEG[7] S4BEG[8] S4BEG[9]
+ S4END[0] S4END[10] S4END[11] S4END[12] S4END[13] S4END[14] S4END[15] S4END[1] S4END[2]
+ S4END[3] S4END[4] S4END[5] S4END[6] S4END[7] S4END[8] S4END[9] UIO_IN_TT_PROJECT0
+ UIO_IN_TT_PROJECT1 UIO_IN_TT_PROJECT2 UIO_IN_TT_PROJECT3 UIO_IN_TT_PROJECT4 UIO_IN_TT_PROJECT5
+ UIO_IN_TT_PROJECT6 UIO_IN_TT_PROJECT7 UIO_OE_TT_PROJECT0 UIO_OE_TT_PROJECT1 UIO_OE_TT_PROJECT2
+ UIO_OE_TT_PROJECT3 UIO_OE_TT_PROJECT4 UIO_OE_TT_PROJECT5 UIO_OE_TT_PROJECT6 UIO_OE_TT_PROJECT7
+ UIO_OUT_TT_PROJECT0 UIO_OUT_TT_PROJECT1 UIO_OUT_TT_PROJECT2 UIO_OUT_TT_PROJECT3
+ UIO_OUT_TT_PROJECT4 UIO_OUT_TT_PROJECT5 UIO_OUT_TT_PROJECT6 UIO_OUT_TT_PROJECT7
+ UI_IN_TT_PROJECT0 UI_IN_TT_PROJECT1 UI_IN_TT_PROJECT2 UI_IN_TT_PROJECT3 UI_IN_TT_PROJECT4
+ UI_IN_TT_PROJECT5 UI_IN_TT_PROJECT6 UI_IN_TT_PROJECT7 UO_OUT_TT_PROJECT0 UO_OUT_TT_PROJECT1
+ UO_OUT_TT_PROJECT2 UO_OUT_TT_PROJECT3 UO_OUT_TT_PROJECT4 UO_OUT_TT_PROJECT5 UO_OUT_TT_PROJECT6
+ UO_OUT_TT_PROJECT7 UserCLK UserCLKo VGND VPWR W1BEG[0] W1BEG[1] W1BEG[2] W1BEG[3]
+ W2BEG[0] W2BEG[1] W2BEG[2] W2BEG[3] W2BEG[4] W2BEG[5] W2BEG[6] W2BEG[7] W2BEGb[0]
+ W2BEGb[1] W2BEGb[2] W2BEGb[3] W2BEGb[4] W2BEGb[5] W2BEGb[6] W2BEGb[7] W6BEG[0] W6BEG[10]
+ W6BEG[11] W6BEG[1] W6BEG[2] W6BEG[3] W6BEG[4] W6BEG[5] W6BEG[6] W6BEG[7] W6BEG[8]
+ W6BEG[9] WW4BEG[0] WW4BEG[10] WW4BEG[11] WW4BEG[12] WW4BEG[13] WW4BEG[14] WW4BEG[15]
+ WW4BEG[1] WW4BEG[2] WW4BEG[3] WW4BEG[4] WW4BEG[5] WW4BEG[6] WW4BEG[7] WW4BEG[8]
+ WW4BEG[9]
X_1270_ S4END[7] S4BEG[3] VPWR VGND sg13g2_buf_1
X_0419_ VPWR _0038_ _0037_ VGND sg13g2_inv_1
X_0985_ FrameData[19] FrameStrobe[5] Inst_E_TT_IF_ConfigMem.Inst_frame5_bit19.Q VPWR
+ VGND sg13g2_dlhq_1
XFILLER_5_4 VPWR VGND sg13g2_fill_1
XFILLER_52_6 VPWR VGND sg13g2_fill_1
X_1184_ FrameData[25] FrameData_O[25] VPWR VGND sg13g2_buf_1
X_0770_ _0348_ _0347_ Inst_E_TT_IF_ConfigMem.Inst_frame7_bit19.Q Inst_E_TT_IF_switch_matrix.S4BEG0
+ VPWR VGND sg13g2_mux2_1
X_0968_ FrameData[2] FrameStrobe[5] Inst_E_TT_IF_ConfigMem.Inst_frame5_bit2.Q VPWR
+ VGND sg13g2_dlhq_1
X_1322_ Inst_E_TT_IF_switch_matrix.WW4BEG6 WW4BEG[6] VPWR VGND sg13g2_buf_1
X_1253_ Inst_E_TT_IF_switch_matrix.S2BEG2 S2BEG[2] VPWR VGND sg13g2_buf_1
X_0899_ FrameData[29] FrameStrobe[8] Inst_E_TT_IF_ConfigMem.Inst_frame8_bit29.Q VPWR
+ VGND sg13g2_dlhq_1
X_0753_ VGND VPWR _0332_ _0334_ Inst_E_TT_IF_switch_matrix.S4BEG3 _0330_ sg13g2_a21oi_1
X_0684_ _0079_ _0274_ Inst_E_TT_IF_ConfigMem.Inst_frame6_bit22.Q _0275_ VPWR VGND
+ sg13g2_mux2_1
X_0822_ Inst_E_TT_IF_ConfigMem.Inst_frame4_bit21.Q UO_OUT_TT_PROJECT1 _0155_ UIO_OUT_TT_PROJECT5
+ _0096_ Inst_E_TT_IF_ConfigMem.Inst_frame4_bit20.Q Inst_E_TT_IF_switch_matrix.WW4BEG13
+ VPWR VGND sg13g2_mux4_1
X_1236_ N4END[9] N4BEG[5] VPWR VGND sg13g2_buf_1
X_1098_ FrameData[4] FrameStrobe[1] Inst_E_TT_IF_ConfigMem.Inst_frame1_bit4.Q VPWR
+ VGND sg13g2_dlhq_1
X_1167_ FrameData[8] FrameData_O[8] VPWR VGND sg13g2_buf_1
X_1305_ Inst_E_TT_IF_switch_matrix.W6BEG1 W6BEG[1] VPWR VGND sg13g2_buf_1
XFILLER_38_128 VPWR VGND sg13g2_fill_2
X_1219_ Inst_E_TT_IF_switch_matrix.N2BEG4 N2BEG[4] VPWR VGND sg13g2_buf_1
X_0805_ Inst_E_TT_IF_ConfigMem.Inst_frame1_bit2.Q VPWR _0379_ VGND E2MID[6] Inst_E_TT_IF_ConfigMem.Inst_frame1_bit3.Q
+ sg13g2_o21ai_1
X_0736_ _0320_ _0319_ Inst_E_TT_IF_ConfigMem.Inst_frame6_bit6.Q Inst_E_TT_IF_switch_matrix.W1BEG2
+ VPWR VGND sg13g2_mux2_1
X_0667_ _0134_ _0096_ Inst_E_TT_IF_ConfigMem.Inst_frame6_bit25.Q _0259_ VPWR VGND
+ sg13g2_mux2_1
X_0598_ Inst_E_TT_IF_ConfigMem.Inst_frame5_bit18.Q E2END[2] UIO_OUT_TT_PROJECT5 UIO_OUT_TT_PROJECT2
+ UIO_OUT_TT_PROJECT6 Inst_E_TT_IF_ConfigMem.Inst_frame5_bit17.Q _0198_ VPWR VGND
+ sg13g2_mux4_1
X_1021_ FrameData[23] FrameStrobe[4] Inst_E_TT_IF_ConfigMem.Inst_frame4_bit23.Q VPWR
+ VGND sg13g2_dlhq_1
XFILLER_29_74 VPWR VGND sg13g2_fill_2
X_0521_ Inst_E_TT_IF_ConfigMem.Inst_frame2_bit5.Q _0015_ _0130_ VPWR VGND sg13g2_nor2_1
X_0452_ UIO_IN_TT_PROJECT6 _0068_ Inst_E_TT_IF_ConfigMem.Inst_frame2_bit28.Q _0066_
+ _0063_ VPWR VGND sg13g2_a22oi_1
X_0383_ VPWR _0002_ S1END[3] VGND sg13g2_inv_1
XANTENNA_5 VPWR VGND Inst_E_TT_IF_switch_matrix.S4BEG2 sg13g2_antennanp
X_1004_ FrameData[6] FrameStrobe[4] Inst_E_TT_IF_ConfigMem.Inst_frame4_bit6.Q VPWR
+ VGND sg13g2_dlhq_1
X_0719_ Inst_E_TT_IF_switch_matrix.W2BEG1 _0304_ _0306_ _0302_ _0298_ VPWR VGND sg13g2_a22oi_1
X_0504_ Inst_E_TT_IF_ConfigMem.Inst_frame2_bit11.Q _0014_ _0115_ VPWR VGND sg13g2_nor2_1
X_0435_ VPWR _0053_ _0052_ VGND sg13g2_inv_1
XFILLER_42_85 VPWR VGND sg13g2_fill_2
X_0418_ Inst_E_TT_IF_ConfigMem.Inst_frame1_bit4.Q E2MID[3] E2MID[6] E2END[1] E2END[2]
+ Inst_E_TT_IF_ConfigMem.Inst_frame1_bit5.Q _0037_ VPWR VGND sg13g2_mux4_1
X_0984_ FrameData[18] FrameStrobe[5] Inst_E_TT_IF_ConfigMem.Inst_frame5_bit18.Q VPWR
+ VGND sg13g2_dlhq_1
XFILLER_10_104 VPWR VGND sg13g2_fill_1
X_1183_ FrameData[24] FrameData_O[24] VPWR VGND sg13g2_buf_1
X_1252_ Inst_E_TT_IF_switch_matrix.S2BEG1 S2BEG[1] VPWR VGND sg13g2_buf_1
X_1321_ Inst_E_TT_IF_switch_matrix.WW4BEG5 WW4BEG[5] VPWR VGND sg13g2_buf_1
X_0898_ FrameData[28] FrameStrobe[8] Inst_E_TT_IF_ConfigMem.Inst_frame8_bit28.Q VPWR
+ VGND sg13g2_dlhq_1
X_0967_ FrameData[1] FrameStrobe[5] Inst_E_TT_IF_ConfigMem.Inst_frame5_bit1.Q VPWR
+ VGND sg13g2_dlhq_1
X_0752_ VGND VPWR Inst_E_TT_IF_ConfigMem.Inst_frame7_bit27.Q _0333_ _0334_ Inst_E_TT_IF_ConfigMem.Inst_frame7_bit28.Q
+ sg13g2_a21oi_1
XFILLER_0_36 VPWR VGND sg13g2_fill_1
X_0821_ Inst_E_TT_IF_ConfigMem.Inst_frame4_bit23.Q UO_OUT_TT_PROJECT2 _0162_ UIO_OUT_TT_PROJECT6
+ _0104_ Inst_E_TT_IF_ConfigMem.Inst_frame4_bit22.Q Inst_E_TT_IF_switch_matrix.WW4BEG14
+ VPWR VGND sg13g2_mux4_1
XFILLER_49_170 VPWR VGND sg13g2_fill_1
X_1235_ N4END[8] N4BEG[4] VPWR VGND sg13g2_buf_1
X_0683_ VPWR VGND Inst_E_TT_IF_ConfigMem.Inst_frame0_bit30.Q _0273_ _0272_ _0002_
+ _0274_ Inst_E_TT_IF_ConfigMem.Inst_frame0_bit31.Q sg13g2_a221oi_1
X_1166_ FrameData[7] FrameData_O[7] VPWR VGND sg13g2_buf_1
X_1097_ FrameData[3] FrameStrobe[1] Inst_E_TT_IF_ConfigMem.Inst_frame1_bit3.Q VPWR
+ VGND sg13g2_dlhq_1
X_1304_ Inst_E_TT_IF_switch_matrix.W6BEG0 W6BEG[0] VPWR VGND sg13g2_buf_1
XFILLER_18_43 VPWR VGND sg13g2_fill_1
XFILLER_18_21 VPWR VGND sg13g2_fill_1
X_0804_ _0376_ _0378_ Inst_E_TT_IF_switch_matrix.N4BEG0 VPWR VGND sg13g2_nor2_1
X_0666_ Inst_E_TT_IF_switch_matrix.W2BEG6 _0256_ _0258_ _0254_ _0253_ VPWR VGND sg13g2_a22oi_1
X_0735_ Inst_E_TT_IF_ConfigMem.Inst_frame6_bit4.Q N1END[2] S1END[2] UO_OUT_TT_PROJECT0
+ UO_OUT_TT_PROJECT5 Inst_E_TT_IF_ConfigMem.Inst_frame6_bit5.Q _0320_ VPWR VGND sg13g2_mux4_1
X_0597_ _0193_ _0196_ _0197_ VPWR VGND sg13g2_nor2_1
X_1020_ FrameData[22] FrameStrobe[4] Inst_E_TT_IF_ConfigMem.Inst_frame4_bit22.Q VPWR
+ VGND sg13g2_dlhq_1
X_1149_ FrameData[23] FrameStrobe[0] Inst_E_TT_IF_ConfigMem.Inst_frame0_bit23.Q VPWR
+ VGND sg13g2_dlhq_1
X_1218_ Inst_E_TT_IF_switch_matrix.N2BEG3 N2BEG[3] VPWR VGND sg13g2_buf_1
XFILLER_20_88 VPWR VGND sg13g2_fill_2
XFILLER_43_198 VPWR VGND sg13g2_fill_2
X_0520_ E2MID[6] EE4END[6] Inst_E_TT_IF_ConfigMem.Inst_frame2_bit5.Q _0129_ VPWR VGND
+ sg13g2_mux2_1
X_0451_ _0068_ _0067_ _0006_ _0065_ _0060_ VPWR VGND sg13g2_a22oi_1
XANTENNA_6 VPWR VGND N2END[0] sg13g2_antennanp
X_0382_ VPWR _0001_ E1END[3] VGND sg13g2_inv_1
X_1003_ FrameData[5] FrameStrobe[4] Inst_E_TT_IF_ConfigMem.Inst_frame4_bit5.Q VPWR
+ VGND sg13g2_dlhq_1
XFILLER_25_198 VPWR VGND sg13g2_fill_2
X_0649_ Inst_E_TT_IF_ConfigMem.Inst_frame6_bit31.Q _0120_ _0112_ _0052_ _0242_ Inst_E_TT_IF_ConfigMem.Inst_frame5_bit0.Q
+ _0243_ VPWR VGND sg13g2_mux4_1
X_0718_ VGND VPWR Inst_E_TT_IF_ConfigMem.Inst_frame6_bit14.Q _0305_ _0306_ Inst_E_TT_IF_ConfigMem.Inst_frame6_bit15.Q
+ sg13g2_a21oi_1
XFILLER_16_165 VPWR VGND sg13g2_fill_1
X_0434_ Inst_E_TT_IF_ConfigMem.Inst_frame0_bit22.Q N2MID[7] N2END[7] S2MID[7] S2END[7]
+ Inst_E_TT_IF_ConfigMem.Inst_frame0_bit23.Q _0052_ VPWR VGND sg13g2_mux4_1
X_0503_ E2MID[0] EE4END[0] Inst_E_TT_IF_ConfigMem.Inst_frame2_bit11.Q _0114_ VPWR
+ VGND sg13g2_mux2_1
XFILLER_42_97 VPWR VGND sg13g2_fill_1
X_0983_ FrameData[17] FrameStrobe[5] Inst_E_TT_IF_ConfigMem.Inst_frame5_bit17.Q VPWR
+ VGND sg13g2_dlhq_1
X_0417_ VPWR _0036_ Inst_E_TT_IF_ConfigMem.Inst_frame8_bit16.Q VGND sg13g2_inv_1
XFILLER_53_96 VPWR VGND sg13g2_fill_2
X_1182_ FrameData[23] FrameData_O[23] VPWR VGND sg13g2_buf_1
X_1251_ Inst_E_TT_IF_switch_matrix.S2BEG0 S2BEG[0] VPWR VGND sg13g2_buf_1
X_1320_ Inst_E_TT_IF_switch_matrix.WW4BEG4 WW4BEG[4] VPWR VGND sg13g2_buf_1
XFILLER_5_197 VPWR VGND sg13g2_fill_2
X_0897_ FrameData[27] FrameStrobe[8] Inst_E_TT_IF_ConfigMem.Inst_frame8_bit27.Q VPWR
+ VGND sg13g2_dlhq_1
X_0966_ FrameData[0] FrameStrobe[5] Inst_E_TT_IF_ConfigMem.Inst_frame5_bit0.Q VPWR
+ VGND sg13g2_dlhq_1
X_1234_ N4END[7] N4BEG[3] VPWR VGND sg13g2_buf_1
X_0682_ N1END[3] Inst_E_TT_IF_ConfigMem.Inst_frame0_bit30.Q Inst_E_TT_IF_ConfigMem.Inst_frame0_bit31.Q
+ _0273_ VPWR VGND sg13g2_nor3_1
X_1165_ FrameData[6] FrameData_O[6] VPWR VGND sg13g2_buf_1
X_0751_ EE4END[15] _0087_ Inst_E_TT_IF_ConfigMem.Inst_frame7_bit29.Q _0333_ VPWR VGND
+ sg13g2_mux2_1
X_1096_ FrameData[2] FrameStrobe[1] Inst_E_TT_IF_ConfigMem.Inst_frame1_bit2.Q VPWR
+ VGND sg13g2_dlhq_1
X_0820_ Inst_E_TT_IF_ConfigMem.Inst_frame4_bit25.Q UO_OUT_TT_PROJECT3 _0169_ UIO_OUT_TT_PROJECT7
+ _0112_ Inst_E_TT_IF_ConfigMem.Inst_frame4_bit24.Q Inst_E_TT_IF_switch_matrix.WW4BEG15
+ VPWR VGND sg13g2_mux4_1
X_1303_ Inst_E_TT_IF_switch_matrix.W2BEGb7 W2BEGb[7] VPWR VGND sg13g2_buf_1
X_0949_ FrameData[15] FrameStrobe[6] Inst_E_TT_IF_ConfigMem.Inst_frame6_bit15.Q VPWR
+ VGND sg13g2_dlhq_1
X_0803_ Inst_E_TT_IF_ConfigMem.Inst_frame8_bit15.Q _0377_ _0378_ VPWR VGND sg13g2_nor2_1
X_0665_ VGND VPWR Inst_E_TT_IF_ConfigMem.Inst_frame6_bit29.Q _0257_ _0258_ Inst_E_TT_IF_ConfigMem.Inst_frame6_bit30.Q
+ sg13g2_a21oi_1
X_0734_ Inst_E_TT_IF_ConfigMem.Inst_frame6_bit4.Q UIO_OE_TT_PROJECT2 UIO_OE_TT_PROJECT3
+ UIO_OE_TT_PROJECT4 UIO_OE_TT_PROJECT5 Inst_E_TT_IF_ConfigMem.Inst_frame6_bit5.Q
+ _0319_ VPWR VGND sg13g2_mux4_1
XFILLER_52_199 VPWR VGND sg13g2_fill_1
XFILLER_52_111 VPWR VGND sg13g2_fill_2
X_1079_ FrameData[17] FrameStrobe[2] Inst_E_TT_IF_ConfigMem.Inst_frame2_bit17.Q VPWR
+ VGND sg13g2_dlhq_1
X_1217_ Inst_E_TT_IF_switch_matrix.N2BEG2 N2BEG[2] VPWR VGND sg13g2_buf_1
X_1148_ FrameData[22] FrameStrobe[0] Inst_E_TT_IF_ConfigMem.Inst_frame0_bit22.Q VPWR
+ VGND sg13g2_dlhq_1
X_0596_ Inst_E_TT_IF_ConfigMem.Inst_frame5_bit19.Q VPWR _0196_ VGND Inst_E_TT_IF_ConfigMem.Inst_frame5_bit18.Q
+ _0195_ sg13g2_o21ai_1
XANTENNA_7 VPWR VGND N4END[10] sg13g2_antennanp
X_0381_ VPWR _0000_ E2END[3] VGND sg13g2_inv_1
X_0450_ E2MID[6] EE4END[6] Inst_E_TT_IF_ConfigMem.Inst_frame2_bit29.Q _0067_ VPWR
+ VGND sg13g2_mux2_1
XFILLER_28_141 VPWR VGND sg13g2_fill_1
XFILLER_34_199 VPWR VGND sg13g2_fill_1
X_0648_ VPWR VGND Inst_E_TT_IF_ConfigMem.Inst_frame0_bit24.Q _0240_ _0241_ _0009_
+ _0242_ Inst_E_TT_IF_ConfigMem.Inst_frame0_bit25.Q sg13g2_a221oi_1
X_1002_ FrameData[4] FrameStrobe[4] Inst_E_TT_IF_ConfigMem.Inst_frame4_bit4.Q VPWR
+ VGND sg13g2_dlhq_1
X_0579_ _0177_ _0180_ _0181_ VPWR VGND sg13g2_nor2_1
X_0717_ UIO_OUT_TT_PROJECT1 UIO_OE_TT_PROJECT6 Inst_E_TT_IF_ConfigMem.Inst_frame6_bit13.Q
+ _0305_ VPWR VGND sg13g2_mux2_1
XFILLER_25_111 VPWR VGND sg13g2_fill_2
XFILLER_16_111 VPWR VGND sg13g2_fill_1
X_0433_ Inst_E_TT_IF_ConfigMem.Inst_frame0_bit6.Q N1END[3] N4END[3] S1END[3] S4END[3]
+ Inst_E_TT_IF_ConfigMem.Inst_frame0_bit7.Q _0051_ VPWR VGND sg13g2_mux4_1
X_0502_ Inst_E_TT_IF_ConfigMem.Inst_frame2_bit12.Q _0112_ Inst_E_TT_IF_ConfigMem.Inst_frame2_bit11.Q
+ _0113_ VPWR VGND sg13g2_nand3_1
XFILLER_22_147 VPWR VGND sg13g2_fill_2
XFILLER_26_77 VPWR VGND sg13g2_decap_8
X_0982_ FrameData[16] FrameStrobe[5] Inst_E_TT_IF_ConfigMem.Inst_frame5_bit16.Q VPWR
+ VGND sg13g2_dlhq_1
X_0416_ VPWR _0035_ Inst_E_TT_IF_ConfigMem.Inst_frame8_bit19.Q VGND sg13g2_inv_1
X_1181_ FrameData[22] FrameData_O[22] VPWR VGND sg13g2_buf_1
X_0896_ FrameData[26] FrameStrobe[8] Inst_E_TT_IF_ConfigMem.Inst_frame8_bit26.Q VPWR
+ VGND sg13g2_dlhq_1
X_1250_ Inst_E_TT_IF_switch_matrix.S1BEG3 S1BEG[3] VPWR VGND sg13g2_buf_1
X_0965_ FrameData[31] FrameStrobe[6] Inst_E_TT_IF_ConfigMem.Inst_frame6_bit31.Q VPWR
+ VGND sg13g2_dlhq_1
X_1233_ N4END[6] N4BEG[2] VPWR VGND sg13g2_buf_1
X_0681_ _0272_ E6END[3] Inst_E_TT_IF_ConfigMem.Inst_frame0_bit31.Q VPWR VGND sg13g2_nand2b_1
X_0750_ _0331_ VPWR _0332_ VGND _0031_ _0120_ sg13g2_o21ai_1
X_1164_ FrameData[5] FrameData_O[5] VPWR VGND sg13g2_buf_1
X_1095_ FrameData[1] FrameStrobe[1] Inst_E_TT_IF_ConfigMem.Inst_frame1_bit1.Q VPWR
+ VGND sg13g2_dlhq_1
X_1302_ Inst_E_TT_IF_switch_matrix.W2BEGb6 W2BEGb[6] VPWR VGND sg13g2_buf_1
X_0879_ FrameData[9] FrameStrobe[8] Inst_E_TT_IF_ConfigMem.Inst_frame8_bit9.Q VPWR
+ VGND sg13g2_dlhq_1
X_0948_ FrameData[14] FrameStrobe[6] Inst_E_TT_IF_ConfigMem.Inst_frame6_bit14.Q VPWR
+ VGND sg13g2_dlhq_1
X_0802_ Inst_E_TT_IF_ConfigMem.Inst_frame8_bit14.Q E1END[0] EE4END[0] _0141_ _0111_
+ Inst_E_TT_IF_ConfigMem.Inst_frame8_bit16.Q _0377_ VPWR VGND sg13g2_mux4_1
X_1147_ FrameData[21] FrameStrobe[0] Inst_E_TT_IF_ConfigMem.Inst_frame0_bit21.Q VPWR
+ VGND sg13g2_dlhq_1
XFILLER_52_178 VPWR VGND sg13g2_fill_1
X_1078_ FrameData[16] FrameStrobe[2] Inst_E_TT_IF_ConfigMem.Inst_frame2_bit16.Q VPWR
+ VGND sg13g2_dlhq_1
X_1216_ Inst_E_TT_IF_switch_matrix.N2BEG1 N2BEG[1] VPWR VGND sg13g2_buf_1
XFILLER_37_164 VPWR VGND sg13g2_fill_1
X_0664_ UIO_OUT_TT_PROJECT6 UIO_OE_TT_PROJECT1 Inst_E_TT_IF_ConfigMem.Inst_frame6_bit28.Q
+ _0257_ VPWR VGND sg13g2_mux2_1
X_0733_ _0318_ _0317_ Inst_E_TT_IF_ConfigMem.Inst_frame6_bit9.Q Inst_E_TT_IF_switch_matrix.W1BEG3
+ VPWR VGND sg13g2_mux2_1
X_0595_ VGND VPWR Inst_E_TT_IF_ConfigMem.Inst_frame5_bit17.Q _0069_ _0195_ _0194_
+ sg13g2_a21oi_1
XFILLER_29_55 VPWR VGND sg13g2_fill_2
XANTENNA_8 VPWR VGND N4END[4] sg13g2_antennanp
X_0716_ _0303_ VPWR _0304_ VGND UO_OUT_TT_PROJECT1 Inst_E_TT_IF_ConfigMem.Inst_frame6_bit13.Q
+ sg13g2_o21ai_1
X_1001_ FrameData[3] FrameStrobe[4] Inst_E_TT_IF_ConfigMem.Inst_frame4_bit3.Q VPWR
+ VGND sg13g2_dlhq_1
X_0647_ _0241_ E6END[0] Inst_E_TT_IF_ConfigMem.Inst_frame0_bit25.Q VPWR VGND sg13g2_nand2b_1
X_0578_ Inst_E_TT_IF_ConfigMem.Inst_frame5_bit25.Q VPWR _0180_ VGND Inst_E_TT_IF_ConfigMem.Inst_frame5_bit24.Q
+ _0179_ sg13g2_o21ai_1
XFILLER_40_126 VPWR VGND sg13g2_fill_1
X_0501_ Inst_E_TT_IF_ConfigMem.Inst_frame0_bit8.Q N2MID[0] N2END[0] S2MID[0] S2END[0]
+ Inst_E_TT_IF_ConfigMem.Inst_frame0_bit9.Q _0112_ VPWR VGND sg13g2_mux4_1
X_0432_ _0042_ VPWR RST_N_TT_PROJECT VGND _0049_ _0050_ sg13g2_o21ai_1
XFILLER_31_115 VPWR VGND sg13g2_decap_8
XFILLER_26_23 VPWR VGND sg13g2_fill_1
X_0981_ FrameData[15] FrameStrobe[5] Inst_E_TT_IF_ConfigMem.Inst_frame5_bit15.Q VPWR
+ VGND sg13g2_dlhq_1
X_0415_ VPWR _0034_ Inst_E_TT_IF_ConfigMem.Inst_frame8_bit22.Q VGND sg13g2_inv_1
X_1180_ FrameData[21] FrameData_O[21] VPWR VGND sg13g2_buf_1
X_0895_ FrameData[25] FrameStrobe[8] Inst_E_TT_IF_ConfigMem.Inst_frame8_bit25.Q VPWR
+ VGND sg13g2_dlhq_1
X_0964_ FrameData[30] FrameStrobe[6] Inst_E_TT_IF_ConfigMem.Inst_frame6_bit30.Q VPWR
+ VGND sg13g2_dlhq_1
XFILLER_5_199 VPWR VGND sg13g2_fill_1
X_1232_ N4END[5] N4BEG[1] VPWR VGND sg13g2_buf_1
X_1301_ Inst_E_TT_IF_switch_matrix.W2BEGb5 W2BEGb[5] VPWR VGND sg13g2_buf_1
X_0680_ _0271_ _0270_ Inst_E_TT_IF_ConfigMem.Inst_frame6_bit23.Q VPWR VGND sg13g2_nand2b_1
X_0878_ FrameData[8] FrameStrobe[8] Inst_E_TT_IF_ConfigMem.Inst_frame8_bit8.Q VPWR
+ VGND sg13g2_dlhq_1
X_1094_ FrameData[0] FrameStrobe[1] Inst_E_TT_IF_ConfigMem.Inst_frame1_bit0.Q VPWR
+ VGND sg13g2_dlhq_1
X_1163_ FrameData[4] FrameData_O[4] VPWR VGND sg13g2_buf_1
X_0947_ FrameData[13] FrameStrobe[6] Inst_E_TT_IF_ConfigMem.Inst_frame6_bit13.Q VPWR
+ VGND sg13g2_dlhq_1
X_1146_ FrameData[20] FrameStrobe[0] Inst_E_TT_IF_ConfigMem.Inst_frame0_bit20.Q VPWR
+ VGND sg13g2_dlhq_1
X_1215_ Inst_E_TT_IF_switch_matrix.N2BEG0 N2BEG[0] VPWR VGND sg13g2_buf_1
X_1077_ FrameData[15] FrameStrobe[2] Inst_E_TT_IF_ConfigMem.Inst_frame2_bit15.Q VPWR
+ VGND sg13g2_dlhq_1
X_0801_ VGND VPWR Inst_E_TT_IF_ConfigMem.Inst_frame8_bit14.Q _0372_ _0376_ _0375_
+ sg13g2_a21oi_1
X_0663_ _0255_ VPWR _0256_ VGND UO_OUT_TT_PROJECT5 Inst_E_TT_IF_ConfigMem.Inst_frame6_bit28.Q
+ sg13g2_o21ai_1
X_0732_ Inst_E_TT_IF_ConfigMem.Inst_frame6_bit7.Q N1END[3] S1END[3] UO_OUT_TT_PROJECT1
+ UO_OUT_TT_PROJECT4 Inst_E_TT_IF_ConfigMem.Inst_frame6_bit8.Q _0318_ VPWR VGND sg13g2_mux4_1
X_0594_ Inst_E_TT_IF_ConfigMem.Inst_frame5_bit17.Q UIO_OE_TT_PROJECT5 _0194_ VPWR
+ VGND sg13g2_nor2b_1
XFILLER_28_132 VPWR VGND sg13g2_decap_8
XANTENNA_9 VPWR VGND N4END[7] sg13g2_antennanp
X_1000_ FrameData[2] FrameStrobe[4] Inst_E_TT_IF_ConfigMem.Inst_frame4_bit2.Q VPWR
+ VGND sg13g2_dlhq_1
X_0715_ VGND VPWR _0028_ Inst_E_TT_IF_ConfigMem.Inst_frame6_bit13.Q _0303_ Inst_E_TT_IF_ConfigMem.Inst_frame6_bit14.Q
+ sg13g2_a21oi_1
X_1129_ FrameData[3] FrameStrobe[0] Inst_E_TT_IF_ConfigMem.Inst_frame0_bit3.Q VPWR
+ VGND sg13g2_dlhq_1
XFILLER_25_113 VPWR VGND sg13g2_fill_1
X_0646_ N1END[0] Inst_E_TT_IF_ConfigMem.Inst_frame0_bit24.Q Inst_E_TT_IF_ConfigMem.Inst_frame0_bit25.Q
+ _0240_ VPWR VGND sg13g2_nor3_1
X_0577_ VGND VPWR Inst_E_TT_IF_ConfigMem.Inst_frame5_bit23.Q _0051_ _0179_ _0178_
+ sg13g2_a21oi_1
X_0431_ _0050_ Inst_E_TT_IF_ConfigMem.Inst_frame1_bit7.Q _0045_ VPWR VGND sg13g2_nand2_1
X_0500_ Inst_E_TT_IF_ConfigMem.Inst_frame1_bit24.Q N1END[0] N4END[0] S1END[0] S4END[0]
+ Inst_E_TT_IF_ConfigMem.Inst_frame1_bit25.Q _0111_ VPWR VGND sg13g2_mux4_1
X_0629_ VGND VPWR Inst_E_TT_IF_ConfigMem.Inst_frame5_bit5.Q _0062_ _0225_ _0224_ sg13g2_a21oi_1
XFILLER_22_149 VPWR VGND sg13g2_fill_1
XFILLER_21_160 VPWR VGND sg13g2_fill_2
X_0414_ VPWR _0033_ Inst_E_TT_IF_ConfigMem.Inst_frame8_bit25.Q VGND sg13g2_inv_1
X_0980_ FrameData[14] FrameStrobe[5] Inst_E_TT_IF_ConfigMem.Inst_frame5_bit14.Q VPWR
+ VGND sg13g2_dlhq_1
X_0894_ FrameData[24] FrameStrobe[8] Inst_E_TT_IF_ConfigMem.Inst_frame8_bit24.Q VPWR
+ VGND sg13g2_dlhq_1
X_0963_ FrameData[29] FrameStrobe[6] Inst_E_TT_IF_ConfigMem.Inst_frame6_bit29.Q VPWR
+ VGND sg13g2_dlhq_1
XFILLER_13_91 VPWR VGND sg13g2_fill_1
XFILLER_49_163 VPWR VGND sg13g2_fill_2
X_1231_ N4END[4] N4BEG[0] VPWR VGND sg13g2_buf_1
X_0877_ FrameData[7] FrameStrobe[8] Inst_E_TT_IF_ConfigMem.Inst_frame8_bit7.Q VPWR
+ VGND sg13g2_dlhq_1
X_1093_ FrameData[31] FrameStrobe[2] Inst_E_TT_IF_ConfigMem.Inst_frame2_bit31.Q VPWR
+ VGND sg13g2_dlhq_1
X_1162_ FrameData[3] FrameData_O[3] VPWR VGND sg13g2_buf_1
X_0946_ FrameData[12] FrameStrobe[6] Inst_E_TT_IF_ConfigMem.Inst_frame6_bit12.Q VPWR
+ VGND sg13g2_dlhq_1
X_1300_ Inst_E_TT_IF_switch_matrix.W2BEGb4 W2BEGb[4] VPWR VGND sg13g2_buf_1
X_1145_ FrameData[19] FrameStrobe[0] Inst_E_TT_IF_ConfigMem.Inst_frame0_bit19.Q VPWR
+ VGND sg13g2_dlhq_1
X_1214_ Inst_E_TT_IF_switch_matrix.N1BEG3 N1BEG[3] VPWR VGND sg13g2_buf_1
XFILLER_37_199 VPWR VGND sg13g2_fill_1
X_0800_ Inst_E_TT_IF_ConfigMem.Inst_frame8_bit15.Q VPWR _0375_ VGND Inst_E_TT_IF_ConfigMem.Inst_frame8_bit14.Q
+ _0374_ sg13g2_o21ai_1
X_0662_ VGND VPWR _0023_ Inst_E_TT_IF_ConfigMem.Inst_frame6_bit28.Q _0255_ Inst_E_TT_IF_ConfigMem.Inst_frame6_bit29.Q
+ sg13g2_a21oi_1
X_0731_ Inst_E_TT_IF_ConfigMem.Inst_frame6_bit7.Q UIO_OE_TT_PROJECT1 UIO_OE_TT_PROJECT3
+ UIO_OE_TT_PROJECT4 UIO_OE_TT_PROJECT7 Inst_E_TT_IF_ConfigMem.Inst_frame6_bit8.Q
+ _0317_ VPWR VGND sg13g2_mux4_1
X_0593_ VGND VPWR Inst_E_TT_IF_ConfigMem.Inst_frame5_bit17.Q _0071_ _0193_ _0192_
+ sg13g2_a21oi_1
X_0929_ FrameData[27] FrameStrobe[7] Inst_E_TT_IF_ConfigMem.Inst_frame7_bit27.Q VPWR
+ VGND sg13g2_dlhq_1
X_1076_ FrameData[14] FrameStrobe[2] Inst_E_TT_IF_ConfigMem.Inst_frame2_bit14.Q VPWR
+ VGND sg13g2_dlhq_1
XFILLER_19_111 VPWR VGND sg13g2_fill_1
X_1059_ FrameData[29] FrameStrobe[3] Inst_E_TT_IF_ConfigMem.Inst_frame3_bit29.Q VPWR
+ VGND sg13g2_dlhq_1
X_1128_ FrameData[2] FrameStrobe[0] Inst_E_TT_IF_ConfigMem.Inst_frame0_bit2.Q VPWR
+ VGND sg13g2_dlhq_1
XFILLER_25_169 VPWR VGND sg13g2_fill_2
X_0714_ _0301_ Inst_E_TT_IF_ConfigMem.Inst_frame6_bit15.Q _0302_ VPWR VGND sg13g2_nor2b_1
X_0576_ Inst_E_TT_IF_ConfigMem.Inst_frame5_bit23.Q UIO_OE_TT_PROJECT7 _0178_ VPWR
+ VGND sg13g2_nor2b_1
X_0645_ _0237_ _0239_ Inst_E_TT_IF_switch_matrix.W2BEGb0 VPWR VGND sg13g2_nor2_1
X_0430_ VGND VPWR _0047_ _0048_ _0049_ Inst_E_TT_IF_ConfigMem.Inst_frame1_bit4.Q sg13g2_a21oi_1
X_0628_ Inst_E_TT_IF_ConfigMem.Inst_frame5_bit6.Q VPWR _0224_ VGND Inst_E_TT_IF_ConfigMem.Inst_frame5_bit5.Q
+ _0104_ sg13g2_o21ai_1
X_0559_ Inst_E_TT_IF_ConfigMem.Inst_frame3_bit23.Q _0104_ Inst_E_TT_IF_ConfigMem.Inst_frame3_bit22.Q
+ _0163_ VPWR VGND sg13g2_nand3_1
X_0413_ VPWR _0032_ Inst_E_TT_IF_ConfigMem.Inst_frame7_bit26.Q VGND sg13g2_inv_1
XFILLER_27_90 VPWR VGND sg13g2_fill_1
X_0893_ FrameData[23] FrameStrobe[8] Inst_E_TT_IF_ConfigMem.Inst_frame8_bit23.Q VPWR
+ VGND sg13g2_dlhq_1
XFILLER_23_48 VPWR VGND sg13g2_fill_2
X_0962_ FrameData[28] FrameStrobe[6] Inst_E_TT_IF_ConfigMem.Inst_frame6_bit28.Q VPWR
+ VGND sg13g2_dlhq_1
X_0876_ FrameData[6] FrameStrobe[8] Inst_E_TT_IF_ConfigMem.Inst_frame8_bit6.Q VPWR
+ VGND sg13g2_dlhq_1
X_1230_ N2MID[7] N2BEGb[7] VPWR VGND sg13g2_buf_1
X_1092_ FrameData[30] FrameStrobe[2] Inst_E_TT_IF_ConfigMem.Inst_frame2_bit30.Q VPWR
+ VGND sg13g2_dlhq_1
X_1161_ FrameData[2] FrameData_O[2] VPWR VGND sg13g2_buf_1
X_0945_ FrameData[11] FrameStrobe[6] Inst_E_TT_IF_ConfigMem.Inst_frame6_bit11.Q VPWR
+ VGND sg13g2_dlhq_1
X_1213_ Inst_E_TT_IF_switch_matrix.N1BEG2 N1BEG[2] VPWR VGND sg13g2_buf_1
XFILLER_24_80 VPWR VGND sg13g2_fill_1
X_0661_ _0247_ Inst_E_TT_IF_ConfigMem.Inst_frame6_bit30.Q _0254_ VPWR VGND sg13g2_nor2b_1
X_0730_ Inst_E_TT_IF_switch_matrix.W2BEG0 _0314_ _0316_ _0312_ _0311_ VPWR VGND sg13g2_a22oi_1
X_0592_ Inst_E_TT_IF_ConfigMem.Inst_frame5_bit18.Q VPWR _0192_ VGND Inst_E_TT_IF_ConfigMem.Inst_frame5_bit17.Q
+ _0096_ sg13g2_o21ai_1
X_1144_ FrameData[18] FrameStrobe[0] Inst_E_TT_IF_ConfigMem.Inst_frame0_bit18.Q VPWR
+ VGND sg13g2_dlhq_1
X_0928_ FrameData[26] FrameStrobe[7] Inst_E_TT_IF_ConfigMem.Inst_frame7_bit26.Q VPWR
+ VGND sg13g2_dlhq_1
X_1075_ FrameData[13] FrameStrobe[2] Inst_E_TT_IF_ConfigMem.Inst_frame2_bit13.Q VPWR
+ VGND sg13g2_dlhq_1
X_0859_ Inst_E_TT_IF_ConfigMem.Inst_frame9_bit22.Q E1END[0] E6END[4] _0078_ _0242_
+ Inst_E_TT_IF_ConfigMem.Inst_frame9_bit23.Q Inst_E_TT_IF_switch_matrix.N1BEG0 VPWR
+ VGND sg13g2_mux4_1
XFILLER_19_167 VPWR VGND sg13g2_fill_1
X_1058_ FrameData[28] FrameStrobe[3] Inst_E_TT_IF_ConfigMem.Inst_frame3_bit28.Q VPWR
+ VGND sg13g2_dlhq_1
XFILLER_25_104 VPWR VGND sg13g2_decap_8
X_1127_ FrameData[1] FrameStrobe[0] Inst_E_TT_IF_ConfigMem.Inst_frame0_bit1.Q VPWR
+ VGND sg13g2_dlhq_1
X_0644_ Inst_E_TT_IF_ConfigMem.Inst_frame5_bit4.Q _0238_ _0239_ VPWR VGND sg13g2_nor2_1
X_0713_ VGND VPWR _0299_ _0300_ _0301_ Inst_E_TT_IF_ConfigMem.Inst_frame6_bit14.Q
+ sg13g2_a21oi_1
X_0575_ VGND VPWR Inst_E_TT_IF_ConfigMem.Inst_frame5_bit23.Q _0053_ _0177_ _0176_
+ sg13g2_a21oi_1
X_0489_ _0102_ _0101_ _0012_ _0099_ _0095_ VPWR VGND sg13g2_a22oi_1
X_0558_ Inst_E_TT_IF_ConfigMem.Inst_frame1_bit10.Q N1END[1] N4END[1] S1END[1] S4END[1]
+ Inst_E_TT_IF_ConfigMem.Inst_frame1_bit11.Q _0162_ VPWR VGND sg13g2_mux4_1
X_0627_ _0221_ _0223_ Inst_E_TT_IF_switch_matrix.W2BEGb2 VPWR VGND sg13g2_nor2_1
X_0412_ VPWR _0031_ Inst_E_TT_IF_ConfigMem.Inst_frame7_bit29.Q VGND sg13g2_inv_1
X_0892_ FrameData[22] FrameStrobe[8] Inst_E_TT_IF_ConfigMem.Inst_frame8_bit22.Q VPWR
+ VGND sg13g2_dlhq_1
X_0961_ FrameData[27] FrameStrobe[6] Inst_E_TT_IF_ConfigMem.Inst_frame6_bit27.Q VPWR
+ VGND sg13g2_dlhq_1
XFILLER_48_79 VPWR VGND sg13g2_fill_1
X_1091_ FrameData[29] FrameStrobe[2] Inst_E_TT_IF_ConfigMem.Inst_frame2_bit29.Q VPWR
+ VGND sg13g2_dlhq_1
X_1160_ FrameData[1] FrameData_O[1] VPWR VGND sg13g2_buf_1
XFILLER_1_172 VPWR VGND sg13g2_fill_2
X_0944_ FrameData[10] FrameStrobe[6] Inst_E_TT_IF_ConfigMem.Inst_frame6_bit10.Q VPWR
+ VGND sg13g2_dlhq_1
X_0875_ FrameData[5] FrameStrobe[8] Inst_E_TT_IF_ConfigMem.Inst_frame8_bit5.Q VPWR
+ VGND sg13g2_dlhq_1
X_1289_ Inst_E_TT_IF_switch_matrix.W2BEG1 W2BEG[1] VPWR VGND sg13g2_buf_1
X_0591_ _0189_ _0191_ Inst_E_TT_IF_switch_matrix.W2BEGb6 VPWR VGND sg13g2_nor2_1