* NGSPICE file created from E_TT_IF.ext - technology: ihp-sg13g2

* Black-box entry subcircuit for sg13g2_fill_2 abstract view
.subckt sg13g2_fill_2 VDD VSS
.ends

* Black-box entry subcircuit for sg13g2_nand3b_1 abstract view
.subckt sg13g2_nand3b_1 B C Y VDD VSS A_N
.ends

* Black-box entry subcircuit for sg13g2_decap_8 abstract view
.subckt sg13g2_decap_8 VDD VSS
.ends

* Black-box entry subcircuit for sg13g2_o21ai_1 abstract view
.subckt sg13g2_o21ai_1 B1 VDD Y VSS A1 A2
.ends

* Black-box entry subcircuit for sg13g2_nand2b_1 abstract view
.subckt sg13g2_nand2b_1 Y B A_N VDD VSS
.ends

* Black-box entry subcircuit for sg13g2_mux4_1 abstract view
.subckt sg13g2_mux4_1 S0 A0 A1 A2 A3 S1 X VDD VSS
.ends

* Black-box entry subcircuit for sg13g2_fill_1 abstract view
.subckt sg13g2_fill_1 VDD VSS
.ends

* Black-box entry subcircuit for sg13g2_a21oi_1 abstract view
.subckt sg13g2_a21oi_1 VSS VDD A1 A2 Y B1
.ends

* Black-box entry subcircuit for sg13g2_nor2b_1 abstract view
.subckt sg13g2_nor2b_1 A B_N Y VDD VSS
.ends

* Black-box entry subcircuit for sg13g2_buf_1 abstract view
.subckt sg13g2_buf_1 A X VDD VSS
.ends

* Black-box entry subcircuit for sg13g2_dlhq_1 abstract view
.subckt sg13g2_dlhq_1 D GATE Q VDD VSS
.ends

* Black-box entry subcircuit for sg13g2_antennanp abstract view
.subckt sg13g2_antennanp VDD VSS A
.ends

* Black-box entry subcircuit for sg13g2_nor3_1 abstract view
.subckt sg13g2_nor3_1 A B C Y VDD VSS
.ends

* Black-box entry subcircuit for sg13g2_inv_1 abstract view
.subckt sg13g2_inv_1 VDD Y A VSS
.ends

* Black-box entry subcircuit for sg13g2_decap_4 abstract view
.subckt sg13g2_decap_4 VDD VSS
.ends

* Black-box entry subcircuit for sg13g2_mux2_1 abstract view
.subckt sg13g2_mux2_1 A0 A1 S X VDD VSS
.ends

* Black-box entry subcircuit for sg13g2_or2_1 abstract view
.subckt sg13g2_or2_1 VSS VDD X B A
.ends

* Black-box entry subcircuit for sg13g2_nor2_1 abstract view
.subckt sg13g2_nor2_1 A B Y VDD VSS
.ends

* Black-box entry subcircuit for sg13g2_a221oi_1 abstract view
.subckt sg13g2_a221oi_1 VDD VSS B2 C1 B1 A1 Y A2
.ends

* Black-box entry subcircuit for sg13g2_a22oi_1 abstract view
.subckt sg13g2_a22oi_1 Y B1 B2 A2 A1 VDD VSS
.ends

* Black-box entry subcircuit for sg13g2_buf_8 abstract view
.subckt sg13g2_buf_8 A X VDD VSS
.ends

* Black-box entry subcircuit for sg13g2_a21o_1 abstract view
.subckt sg13g2_a21o_1 A2 A1 B1 X VDD VSS
.ends

* Black-box entry subcircuit for sg13g2_nand2_1 abstract view
.subckt sg13g2_nand2_1 Y A B VDD VSS
.ends

* Black-box entry subcircuit for sg13g2_and2_1 abstract view
.subckt sg13g2_and2_1 A B X VDD VSS
.ends

* Black-box entry subcircuit for sg13g2_and3_1 abstract view
.subckt sg13g2_and3_1 X A B C VDD VSS
.ends

* Black-box entry subcircuit for sg13g2_nand3_1 abstract view
.subckt sg13g2_nand3_1 B C A Y VDD VSS
.ends

.subckt E_TT_IF CLK_TT_PROJECT E1END[0] E1END[1] E1END[2] E1END[3] E2END[0] E2END[1]
+ E2END[2] E2END[3] E2END[4] E2END[5] E2END[6] E2END[7] E2MID[0] E2MID[1] E2MID[2]
+ E2MID[3] E2MID[4] E2MID[5] E2MID[6] E2MID[7] E6END[0] E6END[10] E6END[11] E6END[1]
+ E6END[2] E6END[3] E6END[4] E6END[5] E6END[6] E6END[7] E6END[8] E6END[9] EE4END[0]
+ EE4END[10] EE4END[11] EE4END[12] EE4END[13] EE4END[14] EE4END[15] EE4END[1] EE4END[2]
+ EE4END[3] EE4END[4] EE4END[5] EE4END[6] EE4END[7] EE4END[8] EE4END[9] ENA_TT_PROJECT
+ FrameData[0] FrameData[10] FrameData[11] FrameData[12] FrameData[13] FrameData[14]
+ FrameData[15] FrameData[16] FrameData[17] FrameData[18] FrameData[19] FrameData[1]
+ FrameData[20] FrameData[21] FrameData[22] FrameData[23] FrameData[24] FrameData[25]
+ FrameData[26] FrameData[27] FrameData[28] FrameData[29] FrameData[2] FrameData[30]
+ FrameData[31] FrameData[3] FrameData[4] FrameData[5] FrameData[6] FrameData[7] FrameData[8]
+ FrameData[9] FrameData_O[0] FrameData_O[10] FrameData_O[11] FrameData_O[12] FrameData_O[13]
+ FrameData_O[14] FrameData_O[15] FrameData_O[16] FrameData_O[17] FrameData_O[18]
+ FrameData_O[19] FrameData_O[1] FrameData_O[20] FrameData_O[21] FrameData_O[22] FrameData_O[23]
+ FrameData_O[24] FrameData_O[25] FrameData_O[26] FrameData_O[27] FrameData_O[28]
+ FrameData_O[29] FrameData_O[2] FrameData_O[30] FrameData_O[31] FrameData_O[3] FrameData_O[4]
+ FrameData_O[5] FrameData_O[6] FrameData_O[7] FrameData_O[8] FrameData_O[9] FrameStrobe[0]
+ FrameStrobe[10] FrameStrobe[11] FrameStrobe[12] FrameStrobe[13] FrameStrobe[14]
+ FrameStrobe[15] FrameStrobe[16] FrameStrobe[17] FrameStrobe[18] FrameStrobe[19]
+ FrameStrobe[1] FrameStrobe[2] FrameStrobe[3] FrameStrobe[4] FrameStrobe[5] FrameStrobe[6]
+ FrameStrobe[7] FrameStrobe[8] FrameStrobe[9] FrameStrobe_O[0] FrameStrobe_O[10]
+ FrameStrobe_O[11] FrameStrobe_O[12] FrameStrobe_O[13] FrameStrobe_O[14] FrameStrobe_O[15]
+ FrameStrobe_O[16] FrameStrobe_O[17] FrameStrobe_O[18] FrameStrobe_O[19] FrameStrobe_O[1]
+ FrameStrobe_O[2] FrameStrobe_O[3] FrameStrobe_O[4] FrameStrobe_O[5] FrameStrobe_O[6]
+ FrameStrobe_O[7] FrameStrobe_O[8] FrameStrobe_O[9] N1BEG[0] N1BEG[1] N1BEG[2] N1BEG[3]
+ N1END[0] N1END[1] N1END[2] N1END[3] N2BEG[0] N2BEG[1] N2BEG[2] N2BEG[3] N2BEG[4]
+ N2BEG[5] N2BEG[6] N2BEG[7] N2BEGb[0] N2BEGb[1] N2BEGb[2] N2BEGb[3] N2BEGb[4] N2BEGb[5]
+ N2BEGb[6] N2BEGb[7] N2END[0] N2END[1] N2END[2] N2END[3] N2END[4] N2END[5] N2END[6]
+ N2END[7] N2MID[0] N2MID[1] N2MID[2] N2MID[3] N2MID[4] N2MID[5] N2MID[6] N2MID[7]
+ N4BEG[0] N4BEG[10] N4BEG[11] N4BEG[12] N4BEG[13] N4BEG[14] N4BEG[15] N4BEG[1] N4BEG[2]
+ N4BEG[3] N4BEG[4] N4BEG[5] N4BEG[6] N4BEG[7] N4BEG[8] N4BEG[9] N4END[0] N4END[10]
+ N4END[11] N4END[12] N4END[13] N4END[14] N4END[15] N4END[1] N4END[2] N4END[3] N4END[4]
+ N4END[5] N4END[6] N4END[7] N4END[8] N4END[9] RST_N_TT_PROJECT S1BEG[0] S1BEG[1]
+ S1BEG[2] S1BEG[3] S1END[0] S1END[1] S1END[2] S1END[3] S2BEG[0] S2BEG[1] S2BEG[2]
+ S2BEG[3] S2BEG[4] S2BEG[5] S2BEG[6] S2BEG[7] S2BEGb[0] S2BEGb[1] S2BEGb[2] S2BEGb[3]
+ S2BEGb[4] S2BEGb[5] S2BEGb[6] S2BEGb[7] S2END[0] S2END[1] S2END[2] S2END[3] S2END[4]
+ S2END[5] S2END[6] S2END[7] S2MID[0] S2MID[1] S2MID[2] S2MID[3] S2MID[4] S2MID[5]
+ S2MID[6] S2MID[7] S4BEG[0] S4BEG[10] S4BEG[11] S4BEG[12] S4BEG[13] S4BEG[14] S4BEG[15]
+ S4BEG[1] S4BEG[2] S4BEG[3] S4BEG[4] S4BEG[5] S4BEG[6] S4BEG[7] S4BEG[8] S4BEG[9]
+ S4END[0] S4END[10] S4END[11] S4END[12] S4END[13] S4END[14] S4END[15] S4END[1] S4END[2]
+ S4END[3] S4END[4] S4END[5] S4END[6] S4END[7] S4END[8] S4END[9] UIO_IN_TT_PROJECT0
+ UIO_IN_TT_PROJECT1 UIO_IN_TT_PROJECT2 UIO_IN_TT_PROJECT3 UIO_IN_TT_PROJECT4 UIO_IN_TT_PROJECT5
+ UIO_IN_TT_PROJECT6 UIO_IN_TT_PROJECT7 UIO_OE_TT_PROJECT0 UIO_OE_TT_PROJECT1 UIO_OE_TT_PROJECT2
+ UIO_OE_TT_PROJECT3 UIO_OE_TT_PROJECT4 UIO_OE_TT_PROJECT5 UIO_OE_TT_PROJECT6 UIO_OE_TT_PROJECT7
+ UIO_OUT_TT_PROJECT0 UIO_OUT_TT_PROJECT1 UIO_OUT_TT_PROJECT2 UIO_OUT_TT_PROJECT3
+ UIO_OUT_TT_PROJECT4 UIO_OUT_TT_PROJECT5 UIO_OUT_TT_PROJECT6 UIO_OUT_TT_PROJECT7
+ UI_IN_TT_PROJECT0 UI_IN_TT_PROJECT1 UI_IN_TT_PROJECT2 UI_IN_TT_PROJECT3 UI_IN_TT_PROJECT4
+ UI_IN_TT_PROJECT5 UI_IN_TT_PROJECT6 UI_IN_TT_PROJECT7 UO_OUT_TT_PROJECT0 UO_OUT_TT_PROJECT1
+ UO_OUT_TT_PROJECT2 UO_OUT_TT_PROJECT3 UO_OUT_TT_PROJECT4 UO_OUT_TT_PROJECT5 UO_OUT_TT_PROJECT6
+ UO_OUT_TT_PROJECT7 UserCLK UserCLKo VGND VPWR W1BEG[0] W1BEG[1] W1BEG[2] W1BEG[3]
+ W2BEG[0] W2BEG[1] W2BEG[2] W2BEG[3] W2BEG[4] W2BEG[5] W2BEG[6] W2BEG[7] W2BEGb[0]
+ W2BEGb[1] W2BEGb[2] W2BEGb[3] W2BEGb[4] W2BEGb[5] W2BEGb[6] W2BEGb[7] W6BEG[0] W6BEG[10]
+ W6BEG[11] W6BEG[1] W6BEG[2] W6BEG[3] W6BEG[4] W6BEG[5] W6BEG[6] W6BEG[7] W6BEG[8]
+ W6BEG[9] WW4BEG[0] WW4BEG[10] WW4BEG[11] WW4BEG[12] WW4BEG[13] WW4BEG[14] WW4BEG[15]
+ WW4BEG[1] WW4BEG[2] WW4BEG[3] WW4BEG[4] WW4BEG[5] WW4BEG[6] WW4BEG[7] WW4BEG[8]
+ WW4BEG[9]
XFILLER_22_133 VPWR VGND sg13g2_fill_2
X_294_ Inst_E_TT_IF_ConfigMem.Inst_frame2_bit17.Q _077_ _079_ VPWR VGND Inst_E_TT_IF_ConfigMem.Inst_frame2_bit16.Q
+ sg13g2_nand3b_1
XFILLER_42_95 VPWR VGND sg13g2_decap_8
X_363_ _138_ VPWR _139_ VGND Inst_E_TT_IF_ConfigMem.Inst_frame3_bit22.Q _137_ sg13g2_o21ai_1
X_501_ _207_ E6END[0] Inst_E_TT_IF_ConfigMem.Inst_frame0_bit25.Q VPWR VGND sg13g2_nand2b_1
X_432_ Inst_E_TT_IF_ConfigMem.Inst_frame3_bit17.Q UIO_OUT_TT_PROJECT3 _117_ _141_
+ _039_ Inst_E_TT_IF_ConfigMem.Inst_frame3_bit16.Q Inst_E_TT_IF_switch_matrix.W6BEG11
+ VPWR VGND sg13g2_mux4_1
XFILLER_3_67 VPWR VGND sg13g2_fill_1
XFILLER_13_199 VPWR VGND sg13g2_fill_1
XFILLER_37_84 VPWR VGND sg13g2_fill_2
X_346_ Inst_E_TT_IF_ConfigMem.Inst_frame3_bit27.Q E2MID[3] E2END[3] EE4END[3] EE4END[11]
+ Inst_E_TT_IF_ConfigMem.Inst_frame3_bit28.Q _124_ VPWR VGND sg13g2_mux4_1
X_415_ VGND VPWR _006_ _017_ _183_ _015_ sg13g2_a21oi_1
XFILLER_10_125 VPWR VGND sg13g2_fill_2
X_277_ Inst_E_TT_IF_ConfigMem.Inst_frame2_bit22.Q EE4END[12] _064_ VPWR VGND sg13g2_nor2b_1
X_329_ _107_ VPWR _110_ VGND Inst_E_TT_IF_ConfigMem.Inst_frame2_bit5.Q _109_ sg13g2_o21ai_1
X_895_ S2MID[0] S2BEGb[0] VPWR VGND sg13g2_buf_1
XFILLER_2_198 VPWR VGND sg13g2_fill_2
X_964_ Inst_E_TT_IF_switch_matrix.WW4BEG12 WW4BEG[12] VPWR VGND sg13g2_buf_1
XFILLER_18_53 VPWR VGND sg13g2_fill_2
X_947_ Inst_E_TT_IF_switch_matrix.W6BEG7 W6BEG[7] VPWR VGND sg13g2_buf_1
X_878_ N4END[15] N4BEG[11] VPWR VGND sg13g2_buf_1
X_680_ FrameData[14] FrameStrobe[3] Inst_E_TT_IF_ConfigMem.Inst_frame3_bit14.Q VPWR
+ VGND sg13g2_dlhq_1
XFILLER_43_175 VPWR VGND sg13g2_fill_2
X_801_ FrameData[6] FrameData_O[6] VPWR VGND sg13g2_buf_1
X_732_ FrameData[2] FrameStrobe[1] Inst_E_TT_IF_ConfigMem.Inst_frame1_bit2.Q VPWR
+ VGND sg13g2_dlhq_1
XFILLER_29_96 VPWR VGND sg13g2_fill_2
X_663_ FrameData[29] FrameStrobe[4] Inst_E_TT_IF_ConfigMem.Inst_frame4_bit29.Q VPWR
+ VGND sg13g2_dlhq_1
X_594_ FrameData[24] FrameStrobe[6] Inst_E_TT_IF_ConfigMem.Inst_frame6_bit24.Q VPWR
+ VGND sg13g2_dlhq_1
XANTENNA_5 VPWR VGND FrameStrobe[19] sg13g2_antennanp
XFILLER_34_197 VPWR VGND sg13g2_fill_2
XFILLER_15_54 VPWR VGND sg13g2_decap_8
X_715_ FrameData[17] FrameStrobe[2] Inst_E_TT_IF_ConfigMem.Inst_frame2_bit17.Q VPWR
+ VGND sg13g2_dlhq_1
X_577_ FrameData[7] FrameStrobe[6] Inst_E_TT_IF_ConfigMem.Inst_frame6_bit7.Q VPWR
+ VGND sg13g2_dlhq_1
X_646_ FrameData[12] FrameStrobe[4] Inst_E_TT_IF_ConfigMem.Inst_frame4_bit12.Q VPWR
+ VGND sg13g2_dlhq_1
XFILLER_11_0 VPWR VGND sg13g2_fill_2
X_293_ Inst_E_TT_IF_ConfigMem.Inst_frame2_bit17.Q E2MID[2] EE4END[2] E2END[2] EE4END[10]
+ Inst_E_TT_IF_ConfigMem.Inst_frame2_bit16.Q _078_ VPWR VGND sg13g2_mux4_1
X_431_ _195_ VPWR ENA_TT_PROJECT VGND Inst_E_TT_IF_ConfigMem.Inst_frame1_bit3.Q _196_
+ sg13g2_o21ai_1
X_362_ Inst_E_TT_IF_ConfigMem.Inst_frame3_bit22.Q _084_ _138_ VPWR VGND Inst_E_TT_IF_ConfigMem.Inst_frame3_bit21.Q
+ sg13g2_nand3b_1
XFILLER_26_97 VPWR VGND sg13g2_decap_8
XFILLER_26_42 VPWR VGND sg13g2_fill_2
X_500_ N1END[0] Inst_E_TT_IF_ConfigMem.Inst_frame0_bit24.Q Inst_E_TT_IF_ConfigMem.Inst_frame0_bit25.Q
+ _206_ VPWR VGND sg13g2_nor3_1
XFILLER_9_127 VPWR VGND sg13g2_fill_2
XFILLER_13_134 VPWR VGND sg13g2_fill_1
XFILLER_13_156 VPWR VGND sg13g2_decap_8
X_629_ FrameData[27] FrameStrobe[5] Inst_E_TT_IF_ConfigMem.Inst_frame5_bit27.Q VPWR
+ VGND sg13g2_dlhq_1
XFILLER_6_108 VPWR VGND sg13g2_fill_1
X_414_ VGND VPWR _015_ _181_ _182_ _016_ sg13g2_a21oi_1
X_276_ VPWR _063_ _062_ VGND sg13g2_inv_1
X_345_ Inst_E_TT_IF_ConfigMem.Inst_frame1_bit14.Q N1END[3] N4END[3] S1END[3] S4END[3]
+ Inst_E_TT_IF_ConfigMem.Inst_frame1_bit15.Q _123_ VPWR VGND sg13g2_mux4_1
XFILLER_48_95 VPWR VGND sg13g2_decap_8
X_259_ Inst_E_TT_IF_ConfigMem.Inst_frame0_bit4.Q N1END[2] N4END[2] S1END[2] S4END[2]
+ Inst_E_TT_IF_ConfigMem.Inst_frame0_bit5.Q _048_ VPWR VGND sg13g2_mux4_1
X_328_ VGND VPWR Inst_E_TT_IF_ConfigMem.Inst_frame2_bit4.Q _105_ _109_ _108_ sg13g2_a21oi_1
XFILLER_2_144 VPWR VGND sg13g2_fill_2
X_894_ Inst_E_TT_IF_switch_matrix.S2BEG7 S2BEG[7] VPWR VGND sg13g2_buf_1
XFILLER_3_2 VPWR VGND sg13g2_fill_1
X_963_ Inst_E_TT_IF_switch_matrix.WW4BEG11 WW4BEG[11] VPWR VGND sg13g2_buf_1
XFILLER_41_0 VPWR VGND sg13g2_decap_8
X_877_ N4END[14] N4BEG[10] VPWR VGND sg13g2_buf_1
X_946_ Inst_E_TT_IF_switch_matrix.W6BEG6 W6BEG[6] VPWR VGND sg13g2_buf_1
XFILLER_52_198 VPWR VGND sg13g2_fill_2
X_800_ FrameData[5] FrameData_O[5] VPWR VGND sg13g2_buf_1
X_731_ FrameData[1] FrameStrobe[1] Inst_E_TT_IF_ConfigMem.Inst_frame1_bit1.Q VPWR
+ VGND sg13g2_dlhq_1
XFILLER_29_129 VPWR VGND sg13g2_fill_2
X_662_ FrameData[28] FrameStrobe[4] Inst_E_TT_IF_ConfigMem.Inst_frame4_bit28.Q VPWR
+ VGND sg13g2_dlhq_1
XANTENNA_6 VPWR VGND FrameStrobe[9] sg13g2_antennanp
X_593_ FrameData[23] FrameStrobe[6] Inst_E_TT_IF_ConfigMem.Inst_frame6_bit23.Q VPWR
+ VGND sg13g2_dlhq_1
X_929_ Inst_E_TT_IF_switch_matrix.W2BEG5 W2BEG[5] VPWR VGND sg13g2_buf_1
XFILLER_15_11 VPWR VGND sg13g2_fill_2
X_714_ FrameData[16] FrameStrobe[2] Inst_E_TT_IF_ConfigMem.Inst_frame2_bit16.Q VPWR
+ VGND sg13g2_dlhq_1
XFILLER_40_157 VPWR VGND sg13g2_decap_8
XFILLER_31_179 VPWR VGND sg13g2_fill_1
XFILLER_31_76 VPWR VGND sg13g2_decap_4
XFILLER_31_54 VPWR VGND sg13g2_fill_1
XFILLER_31_21 VPWR VGND sg13g2_fill_1
X_576_ FrameData[6] FrameStrobe[6] Inst_E_TT_IF_ConfigMem.Inst_frame6_bit6.Q VPWR
+ VGND sg13g2_dlhq_1
X_645_ FrameData[11] FrameStrobe[4] Inst_E_TT_IF_ConfigMem.Inst_frame4_bit11.Q VPWR
+ VGND sg13g2_dlhq_1
X_292_ Inst_E_TT_IF_ConfigMem.Inst_frame0_bit13.Q N2MID[2] S2MID[2] N2END[2] S2END[2]
+ Inst_E_TT_IF_ConfigMem.Inst_frame0_bit12.Q _077_ VPWR VGND sg13g2_mux4_1
X_361_ VGND VPWR Inst_E_TT_IF_ConfigMem.Inst_frame3_bit21.Q _135_ _137_ _136_ sg13g2_a21oi_1
X_430_ _196_ N2MID[6] Inst_E_TT_IF_ConfigMem.Inst_frame1_bit2.Q VPWR VGND sg13g2_nand2b_1
X_559_ FrameData[21] FrameStrobe[7] Inst_E_TT_IF_ConfigMem.Inst_frame7_bit21.Q VPWR
+ VGND sg13g2_dlhq_1
X_628_ FrameData[26] FrameStrobe[5] Inst_E_TT_IF_ConfigMem.Inst_frame5_bit26.Q VPWR
+ VGND sg13g2_dlhq_1
X_275_ Inst_E_TT_IF_ConfigMem.Inst_frame0_bit16.Q N2MID[4] N2END[4] S2MID[4] S2END[4]
+ Inst_E_TT_IF_ConfigMem.Inst_frame0_bit17.Q _062_ VPWR VGND sg13g2_mux4_1
X_413_ E6END[9] _054_ Inst_E_TT_IF_ConfigMem.Inst_frame7_bit7.Q _181_ VPWR VGND sg13g2_mux2_1
X_344_ _122_ _121_ Inst_E_TT_IF_ConfigMem.Inst_frame2_bit0.Q UI_IN_TT_PROJECT4 VPWR
+ VGND sg13g2_mux2_1
XFILLER_23_44 VPWR VGND sg13g2_fill_2
X_893_ Inst_E_TT_IF_switch_matrix.S2BEG6 S2BEG[6] VPWR VGND sg13g2_buf_1
X_962_ Inst_E_TT_IF_switch_matrix.WW4BEG10 WW4BEG[10] VPWR VGND sg13g2_buf_1
X_258_ Inst_E_TT_IF_ConfigMem.Inst_frame0_bit20.Q N2MID[6] N2END[6] S2MID[6] S2END[6]
+ Inst_E_TT_IF_ConfigMem.Inst_frame0_bit21.Q _047_ VPWR VGND sg13g2_mux4_1
X_327_ Inst_E_TT_IF_ConfigMem.Inst_frame2_bit4.Q E6END[6] _108_ VPWR VGND sg13g2_nor2b_1
XFILLER_18_11 VPWR VGND sg13g2_fill_2
X_945_ Inst_E_TT_IF_switch_matrix.W6BEG5 W6BEG[5] VPWR VGND sg13g2_buf_1
X_876_ N4END[13] N4BEG[9] VPWR VGND sg13g2_buf_1
XFILLER_1_0 VPWR VGND sg13g2_fill_2
XFILLER_52_188 VPWR VGND sg13g2_fill_1
XANTENNA_7 VPWR VGND N2END[7] sg13g2_antennanp
XFILLER_45_31 VPWR VGND sg13g2_fill_2
XFILLER_43_199 VPWR VGND sg13g2_fill_1
XFILLER_43_177 VPWR VGND sg13g2_fill_1
X_730_ FrameData[0] FrameStrobe[1] Inst_E_TT_IF_ConfigMem.Inst_frame1_bit0.Q VPWR
+ VGND sg13g2_dlhq_1
XFILLER_28_196 VPWR VGND sg13g2_decap_4
X_928_ Inst_E_TT_IF_switch_matrix.W2BEG4 W2BEG[4] VPWR VGND sg13g2_buf_1
X_592_ FrameData[22] FrameStrobe[6] Inst_E_TT_IF_ConfigMem.Inst_frame6_bit22.Q VPWR
+ VGND sg13g2_dlhq_1
XFILLER_6_25 VPWR VGND sg13g2_decap_8
X_661_ FrameData[27] FrameStrobe[4] Inst_E_TT_IF_ConfigMem.Inst_frame4_bit27.Q VPWR
+ VGND sg13g2_dlhq_1
X_859_ N2MID[0] N2BEGb[0] VPWR VGND sg13g2_buf_1
XFILLER_34_199 VPWR VGND sg13g2_fill_1
XFILLER_34_188 VPWR VGND sg13g2_fill_1
XFILLER_34_177 VPWR VGND sg13g2_fill_2
XFILLER_34_133 VPWR VGND sg13g2_fill_1
XFILLER_19_130 VPWR VGND sg13g2_fill_2
X_713_ FrameData[15] FrameStrobe[2] Inst_E_TT_IF_ConfigMem.Inst_frame2_bit15.Q VPWR
+ VGND sg13g2_dlhq_1
XFILLER_25_199 VPWR VGND sg13g2_fill_1
XFILLER_25_155 VPWR VGND sg13g2_decap_4
X_575_ FrameData[5] FrameStrobe[6] Inst_E_TT_IF_ConfigMem.Inst_frame6_bit5.Q VPWR
+ VGND sg13g2_dlhq_1
X_644_ FrameData[10] FrameStrobe[4] Inst_E_TT_IF_ConfigMem.Inst_frame4_bit10.Q VPWR
+ VGND sg13g2_dlhq_1
XFILLER_16_199 VPWR VGND sg13g2_fill_1
XFILLER_11_2 VPWR VGND sg13g2_fill_1
X_291_ Inst_E_TT_IF_ConfigMem.Inst_frame1_bit28.Q N1END[2] N4END[2] S1END[2] S4END[2]
+ Inst_E_TT_IF_ConfigMem.Inst_frame1_bit29.Q _076_ VPWR VGND sg13g2_mux4_1
X_360_ Inst_E_TT_IF_ConfigMem.Inst_frame3_bit21.Q E6END[1] _136_ VPWR VGND sg13g2_nor2b_1
XFILLER_13_125 VPWR VGND sg13g2_decap_8
X_489_ _198_ E6END[3] Inst_E_TT_IF_ConfigMem.Inst_frame0_bit31.Q VPWR VGND sg13g2_nand2b_1
X_558_ FrameData[20] FrameStrobe[7] Inst_E_TT_IF_ConfigMem.Inst_frame7_bit20.Q VPWR
+ VGND sg13g2_dlhq_1
X_627_ FrameData[25] FrameStrobe[5] Inst_E_TT_IF_ConfigMem.Inst_frame5_bit25.Q VPWR
+ VGND sg13g2_dlhq_1
XFILLER_8_195 VPWR VGND sg13g2_decap_4
XFILLER_10_106 VPWR VGND sg13g2_fill_2
X_412_ VGND VPWR _180_ _179_ _178_ sg13g2_or2_1
X_343_ Inst_E_TT_IF_ConfigMem.Inst_frame3_bit31.Q E2MID[4] EE4END[4] E2END[4] EE4END[12]
+ Inst_E_TT_IF_ConfigMem.Inst_frame3_bit30.Q _122_ VPWR VGND sg13g2_mux4_1
XFILLER_5_198 VPWR VGND sg13g2_fill_2
X_274_ Inst_E_TT_IF_ConfigMem.Inst_frame0_bit0.Q N1END[0] N4END[0] S1END[0] S4END[0]
+ Inst_E_TT_IF_ConfigMem.Inst_frame0_bit1.Q _061_ VPWR VGND sg13g2_mux4_1
XFILLER_4_91 VPWR VGND sg13g2_fill_1
XFILLER_48_31 VPWR VGND sg13g2_fill_2
XFILLER_2_146 VPWR VGND sg13g2_fill_1
X_892_ Inst_E_TT_IF_switch_matrix.S2BEG5 S2BEG[5] VPWR VGND sg13g2_buf_1
X_961_ Inst_E_TT_IF_switch_matrix.WW4BEG9 WW4BEG[9] VPWR VGND sg13g2_buf_1
X_326_ Inst_E_TT_IF_ConfigMem.Inst_frame2_bit5.Q _047_ _107_ VPWR VGND Inst_E_TT_IF_ConfigMem.Inst_frame2_bit4.Q
+ sg13g2_nand3b_1
X_257_ _046_ _045_ Inst_E_TT_IF_ConfigMem.Inst_frame1_bit1.Q UIO_IN_TT_PROJECT7 VPWR
+ VGND sg13g2_mux2_1
XFILLER_18_89 VPWR VGND sg13g2_fill_2
X_875_ N4END[12] N4BEG[8] VPWR VGND sg13g2_buf_1
X_309_ Inst_E_TT_IF_ConfigMem.Inst_frame1_bit24.Q N1END[0] N4END[0] S1END[0] S4END[0]
+ Inst_E_TT_IF_ConfigMem.Inst_frame1_bit25.Q _092_ VPWR VGND sg13g2_mux4_1
X_944_ Inst_E_TT_IF_switch_matrix.W6BEG4 W6BEG[4] VPWR VGND sg13g2_buf_1
XFILLER_37_153 VPWR VGND sg13g2_decap_8
XANTENNA_8 VPWR VGND N2MID[1] sg13g2_antennanp
XFILLER_28_164 VPWR VGND sg13g2_fill_1
XFILLER_20_57 VPWR VGND sg13g2_decap_8
X_591_ FrameData[21] FrameStrobe[6] Inst_E_TT_IF_ConfigMem.Inst_frame6_bit21.Q VPWR
+ VGND sg13g2_dlhq_1
X_660_ FrameData[26] FrameStrobe[4] Inst_E_TT_IF_ConfigMem.Inst_frame4_bit26.Q VPWR
+ VGND sg13g2_dlhq_1
X_858_ Inst_E_TT_IF_switch_matrix.N2BEG7 N2BEG[7] VPWR VGND sg13g2_buf_1
X_789_ FrameData[27] FrameStrobe[0] Inst_E_TT_IF_ConfigMem.Inst_frame0_bit27.Q VPWR
+ VGND sg13g2_dlhq_1
XFILLER_19_197 VPWR VGND sg13g2_fill_2
X_927_ Inst_E_TT_IF_switch_matrix.W2BEG3 W2BEG[3] VPWR VGND sg13g2_buf_1
XFILLER_31_34 VPWR VGND sg13g2_fill_2
X_712_ FrameData[14] FrameStrobe[2] Inst_E_TT_IF_ConfigMem.Inst_frame2_bit14.Q VPWR
+ VGND sg13g2_dlhq_1
XFILLER_31_159 VPWR VGND sg13g2_fill_1
X_574_ FrameData[4] FrameStrobe[6] Inst_E_TT_IF_ConfigMem.Inst_frame6_bit4.Q VPWR
+ VGND sg13g2_dlhq_1
X_643_ FrameData[9] FrameStrobe[4] Inst_E_TT_IF_ConfigMem.Inst_frame4_bit9.Q VPWR
+ VGND sg13g2_dlhq_1
XFILLER_26_78 VPWR VGND sg13g2_decap_8
XFILLER_26_23 VPWR VGND sg13g2_fill_1
XFILLER_22_159 VPWR VGND sg13g2_fill_2
XFILLER_13_104 VPWR VGND sg13g2_decap_4
X_557_ FrameData[19] FrameStrobe[7] Inst_E_TT_IF_ConfigMem.Inst_frame7_bit19.Q VPWR
+ VGND sg13g2_dlhq_1
X_488_ N1END[3] Inst_E_TT_IF_ConfigMem.Inst_frame0_bit30.Q Inst_E_TT_IF_ConfigMem.Inst_frame0_bit31.Q
+ _197_ VPWR VGND sg13g2_nor3_1
XFILLER_42_77 VPWR VGND sg13g2_fill_1
X_290_ _075_ _074_ Inst_E_TT_IF_ConfigMem.Inst_frame2_bit21.Q UIO_IN_TT_PROJECT3 VPWR
+ VGND sg13g2_mux2_1
XFILLER_3_49 VPWR VGND sg13g2_fill_1
X_626_ FrameData[24] FrameStrobe[5] Inst_E_TT_IF_ConfigMem.Inst_frame5_bit24.Q VPWR
+ VGND sg13g2_dlhq_1
X_411_ Inst_E_TT_IF_ConfigMem.Inst_frame7_bit5.Q VPWR _179_ VGND _017_ _084_ sg13g2_o21ai_1
X_342_ _120_ VPWR _121_ VGND Inst_E_TT_IF_ConfigMem.Inst_frame3_bit31.Q _119_ sg13g2_o21ai_1
X_273_ _056_ _060_ Inst_E_TT_IF_ConfigMem.Inst_frame2_bit27.Q UIO_IN_TT_PROJECT5 VPWR
+ VGND sg13g2_mux2_1
X_609_ FrameData[7] FrameStrobe[5] Inst_E_TT_IF_ConfigMem.Inst_frame5_bit7.Q VPWR
+ VGND sg13g2_dlhq_1
X_891_ Inst_E_TT_IF_switch_matrix.S2BEG4 S2BEG[4] VPWR VGND sg13g2_buf_1
X_960_ Inst_E_TT_IF_switch_matrix.WW4BEG8 WW4BEG[8] VPWR VGND sg13g2_buf_1
X_325_ Inst_E_TT_IF_ConfigMem.Inst_frame2_bit4.Q E2MID[6] E2END[6] EE4END[6] EE4END[14]
+ Inst_E_TT_IF_ConfigMem.Inst_frame2_bit5.Q _106_ VPWR VGND sg13g2_mux4_1
X_256_ Inst_E_TT_IF_ConfigMem.Inst_frame2_bit31.Q E1END[3] E2MID[7] E2END[7] EE4END[7]
+ Inst_E_TT_IF_ConfigMem.Inst_frame1_bit0.Q _046_ VPWR VGND sg13g2_mux4_1
XFILLER_9_48 VPWR VGND sg13g2_fill_2
XFILLER_18_35 VPWR VGND sg13g2_decap_4
XFILLER_18_13 VPWR VGND sg13g2_fill_1
X_874_ N4END[11] N4BEG[7] VPWR VGND sg13g2_buf_1
XFILLER_46_132 VPWR VGND sg13g2_decap_8
XFILLER_34_78 VPWR VGND sg13g2_fill_2
X_943_ Inst_E_TT_IF_switch_matrix.W6BEG3 W6BEG[3] VPWR VGND sg13g2_buf_1
XFILLER_52_168 VPWR VGND sg13g2_fill_1
X_239_ Inst_E_TT_IF_ConfigMem.Inst_frame1_bit5.Q Inst_E_TT_IF_ConfigMem.Inst_frame1_bit6.Q
+ _030_ VPWR VGND sg13g2_nor2_1
X_308_ VPWR _091_ _090_ VGND sg13g2_inv_1
XFILLER_43_146 VPWR VGND sg13g2_fill_2
X_590_ FrameData[20] FrameStrobe[6] Inst_E_TT_IF_ConfigMem.Inst_frame6_bit20.Q VPWR
+ VGND sg13g2_dlhq_1
X_857_ Inst_E_TT_IF_switch_matrix.N2BEG6 N2BEG[6] VPWR VGND sg13g2_buf_1
XANTENNA_9 VPWR VGND N2MID[1] sg13g2_antennanp
X_788_ FrameData[26] FrameStrobe[0] Inst_E_TT_IF_ConfigMem.Inst_frame0_bit26.Q VPWR
+ VGND sg13g2_dlhq_1
XFILLER_34_113 VPWR VGND sg13g2_fill_2
X_926_ Inst_E_TT_IF_switch_matrix.W2BEG2 W2BEG[2] VPWR VGND sg13g2_buf_1
XFILLER_10_80 VPWR VGND sg13g2_decap_8
XFILLER_40_116 VPWR VGND sg13g2_decap_4
XFILLER_15_47 VPWR VGND sg13g2_decap_8
XFILLER_31_116 VPWR VGND sg13g2_fill_2
X_711_ FrameData[13] FrameStrobe[2] Inst_E_TT_IF_ConfigMem.Inst_frame2_bit13.Q VPWR
+ VGND sg13g2_dlhq_1
X_573_ FrameData[3] FrameStrobe[6] Inst_E_TT_IF_ConfigMem.Inst_frame6_bit3.Q VPWR
+ VGND sg13g2_dlhq_1
X_642_ FrameData[8] FrameStrobe[4] Inst_E_TT_IF_ConfigMem.Inst_frame4_bit8.Q VPWR
+ VGND sg13g2_dlhq_1
X_909_ S4END[10] S4BEG[6] VPWR VGND sg13g2_buf_1
XFILLER_7_70 VPWR VGND sg13g2_decap_4
X_625_ FrameData[23] FrameStrobe[5] Inst_E_TT_IF_ConfigMem.Inst_frame5_bit23.Q VPWR
+ VGND sg13g2_dlhq_1
X_556_ FrameData[18] FrameStrobe[7] Inst_E_TT_IF_ConfigMem.Inst_frame7_bit18.Q VPWR
+ VGND sg13g2_dlhq_1
X_487_ Inst_E_TT_IF_ConfigMem.Inst_frame7_bit22.Q E2MID[7] E2END[7] E6END[8] _090_
+ Inst_E_TT_IF_ConfigMem.Inst_frame7_bit23.Q Inst_E_TT_IF_switch_matrix.S2BEG0 VPWR
+ VGND sg13g2_mux4_1
XFILLER_53_99 VPWR VGND sg13g2_decap_8
X_410_ Inst_E_TT_IF_ConfigMem.Inst_frame7_bit7.Q _135_ _178_ VPWR VGND sg13g2_nor2_1
X_341_ Inst_E_TT_IF_ConfigMem.Inst_frame3_bit31.Q _062_ _120_ VPWR VGND Inst_E_TT_IF_ConfigMem.Inst_frame3_bit30.Q
+ sg13g2_nand3b_1
X_272_ _057_ VPWR _060_ VGND Inst_E_TT_IF_ConfigMem.Inst_frame2_bit26.Q _059_ sg13g2_o21ai_1
X_539_ FrameData[1] FrameStrobe[7] Inst_E_TT_IF_ConfigMem.Inst_frame7_bit1.Q VPWR
+ VGND sg13g2_dlhq_1
X_608_ FrameData[6] FrameStrobe[5] Inst_E_TT_IF_ConfigMem.Inst_frame5_bit6.Q VPWR
+ VGND sg13g2_dlhq_1
X_324_ Inst_E_TT_IF_ConfigMem.Inst_frame1_bit20.Q N1END[2] N4END[2] S1END[2] S4END[2]
+ Inst_E_TT_IF_ConfigMem.Inst_frame1_bit21.Q _105_ VPWR VGND sg13g2_mux4_1
X_255_ _044_ VPWR _045_ VGND Inst_E_TT_IF_ConfigMem.Inst_frame1_bit0.Q _043_ sg13g2_o21ai_1
X_890_ Inst_E_TT_IF_switch_matrix.S2BEG3 S2BEG[3] VPWR VGND sg13g2_buf_1
XFILLER_9_27 VPWR VGND sg13g2_decap_4
X_873_ N4END[10] N4BEG[6] VPWR VGND sg13g2_buf_1
XFILLER_34_24 VPWR VGND sg13g2_fill_1
X_942_ Inst_E_TT_IF_switch_matrix.W6BEG2 W6BEG[2] VPWR VGND sg13g2_buf_1
XFILLER_46_199 VPWR VGND sg13g2_fill_1
X_238_ VPWR VGND _028_ Inst_E_TT_IF_ConfigMem.Inst_frame1_bit7.Q _027_ _021_ _029_
+ _023_ sg13g2_a221oi_1
X_307_ Inst_E_TT_IF_ConfigMem.Inst_frame0_bit8.Q N2MID[0] N2END[0] S2MID[0] S2END[0]
+ Inst_E_TT_IF_ConfigMem.Inst_frame0_bit9.Q _090_ VPWR VGND sg13g2_mux4_1
XFILLER_45_67 VPWR VGND sg13g2_fill_2
XFILLER_28_122 VPWR VGND sg13g2_fill_2
X_856_ Inst_E_TT_IF_switch_matrix.N2BEG5 N2BEG[5] VPWR VGND sg13g2_buf_1
XFILLER_19_199 VPWR VGND sg13g2_fill_1
XFILLER_19_177 VPWR VGND sg13g2_fill_2
X_787_ FrameData[25] FrameStrobe[0] Inst_E_TT_IF_ConfigMem.Inst_frame0_bit25.Q VPWR
+ VGND sg13g2_dlhq_1
X_925_ Inst_E_TT_IF_switch_matrix.W2BEG1 W2BEG[1] VPWR VGND sg13g2_buf_1
XFILLER_32_0 VPWR VGND sg13g2_decap_8
XFILLER_31_36 VPWR VGND sg13g2_fill_1
XFILLER_31_14 VPWR VGND sg13g2_decap_8
X_572_ FrameData[2] FrameStrobe[6] Inst_E_TT_IF_ConfigMem.Inst_frame6_bit2.Q VPWR
+ VGND sg13g2_dlhq_1
X_710_ FrameData[12] FrameStrobe[2] Inst_E_TT_IF_ConfigMem.Inst_frame2_bit12.Q VPWR
+ VGND sg13g2_dlhq_1
XFILLER_21_91 VPWR VGND sg13g2_decap_4
X_641_ FrameData[7] FrameStrobe[4] Inst_E_TT_IF_ConfigMem.Inst_frame4_bit7.Q VPWR
+ VGND sg13g2_dlhq_1
X_839_ FrameStrobe[12] FrameStrobe_O[12] VPWR VGND sg13g2_buf_1
X_908_ S4END[9] S4BEG[5] VPWR VGND sg13g2_buf_1
X_555_ FrameData[17] FrameStrobe[7] Inst_E_TT_IF_ConfigMem.Inst_frame7_bit17.Q VPWR
+ VGND sg13g2_dlhq_1
X_486_ Inst_E_TT_IF_ConfigMem.Inst_frame7_bit24.Q E2MID[6] E2END[6] E6END[9] _084_
+ Inst_E_TT_IF_ConfigMem.Inst_frame7_bit25.Q Inst_E_TT_IF_switch_matrix.S2BEG1 VPWR
+ VGND sg13g2_mux4_1
X_624_ FrameData[22] FrameStrobe[5] Inst_E_TT_IF_ConfigMem.Inst_frame5_bit22.Q VPWR
+ VGND sg13g2_dlhq_1
XFILLER_37_57 VPWR VGND sg13g2_decap_8
X_538_ FrameData[0] FrameStrobe[7] Inst_E_TT_IF_ConfigMem.Inst_frame7_bit0.Q VPWR
+ VGND sg13g2_dlhq_1
X_271_ VGND VPWR Inst_E_TT_IF_ConfigMem.Inst_frame2_bit25.Q _054_ _059_ _058_ sg13g2_a21oi_1
X_340_ VGND VPWR Inst_E_TT_IF_ConfigMem.Inst_frame3_bit30.Q _117_ _119_ _118_ sg13g2_a21oi_1
X_607_ FrameData[5] FrameStrobe[5] Inst_E_TT_IF_ConfigMem.Inst_frame5_bit5.Q VPWR
+ VGND sg13g2_dlhq_1
X_469_ Inst_E_TT_IF_ConfigMem.Inst_frame5_bit7.Q UO_OUT_TT_PROJECT6 _084_ UIO_OUT_TT_PROJECT6
+ _047_ Inst_E_TT_IF_ConfigMem.Inst_frame5_bit6.Q Inst_E_TT_IF_switch_matrix.W2BEG6
+ VPWR VGND sg13g2_mux4_1
X_323_ _100_ _104_ Inst_E_TT_IF_ConfigMem.Inst_frame2_bit9.Q UI_IN_TT_PROJECT7 VPWR
+ VGND sg13g2_mux2_1
X_254_ Inst_E_TT_IF_ConfigMem.Inst_frame1_bit0.Q _039_ _044_ VPWR VGND Inst_E_TT_IF_ConfigMem.Inst_frame2_bit31.Q
+ sg13g2_nand3b_1
XFILLER_2_105 VPWR VGND sg13g2_decap_4
XFILLER_0_19 VPWR VGND sg13g2_fill_2
X_941_ Inst_E_TT_IF_switch_matrix.W6BEG1 W6BEG[1] VPWR VGND sg13g2_buf_1
X_872_ N4END[9] N4BEG[5] VPWR VGND sg13g2_buf_1
X_237_ VGND VPWR _000_ _024_ _028_ Inst_E_TT_IF_ConfigMem.Inst_frame1_bit6.Q sg13g2_a21oi_1
X_306_ _089_ _088_ Inst_E_TT_IF_ConfigMem.Inst_frame2_bit15.Q UIO_IN_TT_PROJECT1 VPWR
+ VGND sg13g2_mux2_1
X_855_ Inst_E_TT_IF_switch_matrix.N2BEG4 N2BEG[4] VPWR VGND sg13g2_buf_1
XFILLER_45_24 VPWR VGND sg13g2_fill_2
XFILLER_34_115 VPWR VGND sg13g2_fill_1
X_786_ FrameData[24] FrameStrobe[0] Inst_E_TT_IF_ConfigMem.Inst_frame0_bit24.Q VPWR
+ VGND sg13g2_dlhq_1
XFILLER_19_123 VPWR VGND sg13g2_decap_8
X_924_ Inst_E_TT_IF_switch_matrix.W2BEG0 W2BEG[0] VPWR VGND sg13g2_buf_1
XFILLER_35_90 VPWR VGND sg13g2_decap_4
XFILLER_25_148 VPWR VGND sg13g2_decap_8
XFILLER_31_118 VPWR VGND sg13g2_fill_1
XFILLER_24_170 VPWR VGND sg13g2_fill_2
X_571_ FrameData[1] FrameStrobe[6] Inst_E_TT_IF_ConfigMem.Inst_frame6_bit1.Q VPWR
+ VGND sg13g2_dlhq_1
X_640_ FrameData[6] FrameStrobe[4] Inst_E_TT_IF_ConfigMem.Inst_frame4_bit6.Q VPWR
+ VGND sg13g2_dlhq_1
X_838_ FrameStrobe[11] FrameStrobe_O[11] VPWR VGND sg13g2_buf_1
XFILLER_30_173 VPWR VGND sg13g2_decap_4
X_769_ FrameData[7] FrameStrobe[0] Inst_E_TT_IF_ConfigMem.Inst_frame0_bit7.Q VPWR
+ VGND sg13g2_dlhq_1
X_907_ S4END[8] S4BEG[4] VPWR VGND sg13g2_buf_1
XFILLER_15_181 VPWR VGND sg13g2_fill_1
XFILLER_21_173 VPWR VGND sg13g2_fill_2
X_485_ Inst_E_TT_IF_ConfigMem.Inst_frame7_bit27.Q E2MID[5] E6END[10] E2END[5] _077_
+ Inst_E_TT_IF_ConfigMem.Inst_frame7_bit26.Q Inst_E_TT_IF_switch_matrix.S2BEG2 VPWR
+ VGND sg13g2_mux4_1
X_554_ FrameData[16] FrameStrobe[7] Inst_E_TT_IF_ConfigMem.Inst_frame7_bit16.Q VPWR
+ VGND sg13g2_dlhq_1
X_623_ FrameData[21] FrameStrobe[5] Inst_E_TT_IF_ConfigMem.Inst_frame5_bit21.Q VPWR
+ VGND sg13g2_dlhq_1
XFILLER_8_199 VPWR VGND sg13g2_fill_1
XFILLER_12_173 VPWR VGND sg13g2_fill_2
X_270_ Inst_E_TT_IF_ConfigMem.Inst_frame2_bit25.Q EE4END[13] _058_ VPWR VGND sg13g2_nor2b_1
X_537_ FrameData[31] FrameStrobe[8] Inst_E_TT_IF_ConfigMem.Inst_frame8_bit31.Q VPWR
+ VGND sg13g2_dlhq_1
X_399_ Inst_E_TT_IF_switch_matrix.S4BEG0 _167_ _169_ _165_ _163_ VPWR VGND sg13g2_a22oi_1
X_468_ Inst_E_TT_IF_ConfigMem.Inst_frame5_bit9.Q UO_OUT_TT_PROJECT7 _090_ UIO_OUT_TT_PROJECT7
+ _039_ Inst_E_TT_IF_ConfigMem.Inst_frame5_bit8.Q Inst_E_TT_IF_switch_matrix.W2BEG7
+ VPWR VGND sg13g2_mux4_1
XFILLER_4_84 VPWR VGND sg13g2_decap_8
X_606_ FrameData[4] FrameStrobe[5] Inst_E_TT_IF_ConfigMem.Inst_frame5_bit4.Q VPWR
+ VGND sg13g2_dlhq_1
X_322_ _101_ VPWR _104_ VGND Inst_E_TT_IF_ConfigMem.Inst_frame2_bit8.Q _103_ sg13g2_o21ai_1
X_253_ VGND VPWR Inst_E_TT_IF_ConfigMem.Inst_frame2_bit31.Q _041_ _043_ _042_ sg13g2_a21oi_1
XFILLER_34_59 VPWR VGND sg13g2_fill_2
X_871_ N4END[8] N4BEG[4] VPWR VGND sg13g2_buf_1
X_236_ _027_ _025_ _026_ VPWR VGND sg13g2_nand2b_1
X_305_ Inst_E_TT_IF_ConfigMem.Inst_frame2_bit14.Q E2MID[1] EE4END[1] E2END[1] EE4END[9]
+ Inst_E_TT_IF_ConfigMem.Inst_frame2_bit13.Q _089_ VPWR VGND sg13g2_mux4_1
X_940_ Inst_E_TT_IF_switch_matrix.W6BEG0 W6BEG[0] VPWR VGND sg13g2_buf_1
X_854_ Inst_E_TT_IF_switch_matrix.N2BEG3 N2BEG[3] VPWR VGND sg13g2_buf_1
XFILLER_45_69 VPWR VGND sg13g2_fill_1
XFILLER_28_157 VPWR VGND sg13g2_decap_8
X_923_ Inst_E_TT_IF_switch_matrix.W1BEG3 W1BEG[3] VPWR VGND sg13g2_buf_1
X_785_ FrameData[23] FrameStrobe[0] Inst_E_TT_IF_ConfigMem.Inst_frame0_bit23.Q VPWR
+ VGND sg13g2_dlhq_1
X_219_ VPWR _010_ Inst_E_TT_IF_ConfigMem.Inst_frame6_bit16.Q VGND sg13g2_inv_1
XFILLER_19_179 VPWR VGND sg13g2_fill_1
XFILLER_18_0 VPWR VGND sg13g2_fill_2
XFILLER_31_27 VPWR VGND sg13g2_decap_8
X_570_ FrameData[0] FrameStrobe[6] Inst_E_TT_IF_ConfigMem.Inst_frame6_bit0.Q VPWR
+ VGND sg13g2_dlhq_1
X_837_ FrameStrobe[10] FrameStrobe_O[10] VPWR VGND sg13g2_buf_1
X_699_ FrameData[1] FrameStrobe[2] Inst_E_TT_IF_ConfigMem.Inst_frame2_bit1.Q VPWR