* NGSPICE file created from W_TT_IF.ext - technology: ihp-sg13g2

* Black-box entry subcircuit for sg13g2_fill_1 abstract view
.subckt sg13g2_fill_1 VDD VSS
.ends

* Black-box entry subcircuit for sg13g2_mux4_1 abstract view
.subckt sg13g2_mux4_1 S0 A0 A1 A2 A3 S1 X VDD VSS
.ends

* Black-box entry subcircuit for sg13g2_o21ai_1 abstract view
.subckt sg13g2_o21ai_1 B1 VDD Y VSS A1 A2
.ends

* Black-box entry subcircuit for sg13g2_nand2b_1 abstract view
.subckt sg13g2_nand2b_1 Y B A_N VDD VSS
.ends

* Black-box entry subcircuit for sg13g2_decap_4 abstract view
.subckt sg13g2_decap_4 VDD VSS
.ends

* Black-box entry subcircuit for sg13g2_nand3b_1 abstract view
.subckt sg13g2_nand3b_1 B C Y VDD VSS A_N
.ends

* Black-box entry subcircuit for sg13g2_a21oi_1 abstract view
.subckt sg13g2_a21oi_1 VSS VDD A1 A2 Y B1
.ends

* Black-box entry subcircuit for sg13g2_decap_8 abstract view
.subckt sg13g2_decap_8 VDD VSS
.ends

* Black-box entry subcircuit for sg13g2_nor2b_1 abstract view
.subckt sg13g2_nor2b_1 A B_N Y VDD VSS
.ends

* Black-box entry subcircuit for sg13g2_buf_1 abstract view
.subckt sg13g2_buf_1 A X VDD VSS
.ends

* Black-box entry subcircuit for sg13g2_fill_2 abstract view
.subckt sg13g2_fill_2 VDD VSS
.ends

* Black-box entry subcircuit for sg13g2_dlhq_1 abstract view
.subckt sg13g2_dlhq_1 D GATE Q VDD VSS
.ends

* Black-box entry subcircuit for sg13g2_antennanp abstract view
.subckt sg13g2_antennanp VDD VSS A
.ends

* Black-box entry subcircuit for sg13g2_nor3_1 abstract view
.subckt sg13g2_nor3_1 A B C Y VDD VSS
.ends

* Black-box entry subcircuit for sg13g2_inv_1 abstract view
.subckt sg13g2_inv_1 VDD Y A VSS
.ends

* Black-box entry subcircuit for sg13g2_mux2_1 abstract view
.subckt sg13g2_mux2_1 A0 A1 S X VDD VSS
.ends

* Black-box entry subcircuit for sg13g2_or2_1 abstract view
.subckt sg13g2_or2_1 VSS VDD X B A
.ends

* Black-box entry subcircuit for sg13g2_nor2_1 abstract view
.subckt sg13g2_nor2_1 A B Y VDD VSS
.ends

* Black-box entry subcircuit for sg13g2_a221oi_1 abstract view
.subckt sg13g2_a221oi_1 VDD VSS B2 C1 B1 A1 Y A2
.ends

* Black-box entry subcircuit for sg13g2_a22oi_1 abstract view
.subckt sg13g2_a22oi_1 Y B1 B2 A2 A1 VDD VSS
.ends

* Black-box entry subcircuit for sg13g2_buf_8 abstract view
.subckt sg13g2_buf_8 A X VDD VSS
.ends

* Black-box entry subcircuit for sg13g2_a21o_1 abstract view
.subckt sg13g2_a21o_1 A2 A1 B1 X VDD VSS
.ends

* Black-box entry subcircuit for sg13g2_nand2_1 abstract view
.subckt sg13g2_nand2_1 Y A B VDD VSS
.ends

* Black-box entry subcircuit for sg13g2_and2_1 abstract view
.subckt sg13g2_and2_1 A B X VDD VSS
.ends

* Black-box entry subcircuit for sg13g2_and3_1 abstract view
.subckt sg13g2_and3_1 X A B C VDD VSS
.ends

* Black-box entry subcircuit for sg13g2_nand3_1 abstract view
.subckt sg13g2_nand3_1 B C A Y VDD VSS
.ends

.subckt W_TT_IF CLK_TT_PROJECT E1BEG[0] E1BEG[1] E1BEG[2] E1BEG[3] E2BEG[0] E2BEG[1]
+ E2BEG[2] E2BEG[3] E2BEG[4] E2BEG[5] E2BEG[6] E2BEG[7] E2BEGb[0] E2BEGb[1] E2BEGb[2]
+ E2BEGb[3] E2BEGb[4] E2BEGb[5] E2BEGb[6] E2BEGb[7] E6BEG[0] E6BEG[10] E6BEG[11] E6BEG[1]
+ E6BEG[2] E6BEG[3] E6BEG[4] E6BEG[5] E6BEG[6] E6BEG[7] E6BEG[8] E6BEG[9] EE4BEG[0]
+ EE4BEG[10] EE4BEG[11] EE4BEG[12] EE4BEG[13] EE4BEG[14] EE4BEG[15] EE4BEG[1] EE4BEG[2]
+ EE4BEG[3] EE4BEG[4] EE4BEG[5] EE4BEG[6] EE4BEG[7] EE4BEG[8] EE4BEG[9] ENA_TT_PROJECT
+ FrameData[0] FrameData[10] FrameData[11] FrameData[12] FrameData[13] FrameData[14]
+ FrameData[15] FrameData[16] FrameData[17] FrameData[18] FrameData[19] FrameData[1]
+ FrameData[20] FrameData[21] FrameData[22] FrameData[23] FrameData[24] FrameData[25]
+ FrameData[26] FrameData[27] FrameData[28] FrameData[29] FrameData[2] FrameData[30]
+ FrameData[31] FrameData[3] FrameData[4] FrameData[5] FrameData[6] FrameData[7] FrameData[8]
+ FrameData[9] FrameData_O[0] FrameData_O[10] FrameData_O[11] FrameData_O[12] FrameData_O[13]
+ FrameData_O[14] FrameData_O[15] FrameData_O[16] FrameData_O[17] FrameData_O[18]
+ FrameData_O[19] FrameData_O[1] FrameData_O[20] FrameData_O[21] FrameData_O[22] FrameData_O[23]
+ FrameData_O[24] FrameData_O[25] FrameData_O[26] FrameData_O[27] FrameData_O[28]
+ FrameData_O[29] FrameData_O[2] FrameData_O[30] FrameData_O[31] FrameData_O[3] FrameData_O[4]
+ FrameData_O[5] FrameData_O[6] FrameData_O[7] FrameData_O[8] FrameData_O[9] FrameStrobe[0]
+ FrameStrobe[10] FrameStrobe[11] FrameStrobe[12] FrameStrobe[13] FrameStrobe[14]
+ FrameStrobe[15] FrameStrobe[16] FrameStrobe[17] FrameStrobe[18] FrameStrobe[19]
+ FrameStrobe[1] FrameStrobe[2] FrameStrobe[3] FrameStrobe[4] FrameStrobe[5] FrameStrobe[6]
+ FrameStrobe[7] FrameStrobe[8] FrameStrobe[9] FrameStrobe_O[0] FrameStrobe_O[10]
+ FrameStrobe_O[11] FrameStrobe_O[12] FrameStrobe_O[13] FrameStrobe_O[14] FrameStrobe_O[15]
+ FrameStrobe_O[16] FrameStrobe_O[17] FrameStrobe_O[18] FrameStrobe_O[19] FrameStrobe_O[1]
+ FrameStrobe_O[2] FrameStrobe_O[3] FrameStrobe_O[4] FrameStrobe_O[5] FrameStrobe_O[6]
+ FrameStrobe_O[7] FrameStrobe_O[8] FrameStrobe_O[9] N1BEG[0] N1BEG[1] N1BEG[2] N1BEG[3]
+ N1END[0] N1END[1] N1END[2] N1END[3] N2BEG[0] N2BEG[1] N2BEG[2] N2BEG[3] N2BEG[4]
+ N2BEG[5] N2BEG[6] N2BEG[7] N2BEGb[0] N2BEGb[1] N2BEGb[2] N2BEGb[3] N2BEGb[4] N2BEGb[5]
+ N2BEGb[6] N2BEGb[7] N2END[0] N2END[1] N2END[2] N2END[3] N2END[4] N2END[5] N2END[6]
+ N2END[7] N2MID[0] N2MID[1] N2MID[2] N2MID[3] N2MID[4] N2MID[5] N2MID[6] N2MID[7]
+ N4BEG[0] N4BEG[10] N4BEG[11] N4BEG[12] N4BEG[13] N4BEG[14] N4BEG[15] N4BEG[1] N4BEG[2]
+ N4BEG[3] N4BEG[4] N4BEG[5] N4BEG[6] N4BEG[7] N4BEG[8] N4BEG[9] N4END[0] N4END[10]
+ N4END[11] N4END[12] N4END[13] N4END[14] N4END[15] N4END[1] N4END[2] N4END[3] N4END[4]
+ N4END[5] N4END[6] N4END[7] N4END[8] N4END[9] RST_N_TT_PROJECT S1BEG[0] S1BEG[1]
+ S1BEG[2] S1BEG[3] S1END[0] S1END[1] S1END[2] S1END[3] S2BEG[0] S2BEG[1] S2BEG[2]
+ S2BEG[3] S2BEG[4] S2BEG[5] S2BEG[6] S2BEG[7] S2BEGb[0] S2BEGb[1] S2BEGb[2] S2BEGb[3]
+ S2BEGb[4] S2BEGb[5] S2BEGb[6] S2BEGb[7] S2END[0] S2END[1] S2END[2] S2END[3] S2END[4]
+ S2END[5] S2END[6] S2END[7] S2MID[0] S2MID[1] S2MID[2] S2MID[3] S2MID[4] S2MID[5]
+ S2MID[6] S2MID[7] S4BEG[0] S4BEG[10] S4BEG[11] S4BEG[12] S4BEG[13] S4BEG[14] S4BEG[15]
+ S4BEG[1] S4BEG[2] S4BEG[3] S4BEG[4] S4BEG[5] S4BEG[6] S4BEG[7] S4BEG[8] S4BEG[9]
+ S4END[0] S4END[10] S4END[11] S4END[12] S4END[13] S4END[14] S4END[15] S4END[1] S4END[2]
+ S4END[3] S4END[4] S4END[5] S4END[6] S4END[7] S4END[8] S4END[9] UIO_IN_TT_PROJECT0
+ UIO_IN_TT_PROJECT1 UIO_IN_TT_PROJECT2 UIO_IN_TT_PROJECT3 UIO_IN_TT_PROJECT4 UIO_IN_TT_PROJECT5
+ UIO_IN_TT_PROJECT6 UIO_IN_TT_PROJECT7 UIO_OE_TT_PROJECT0 UIO_OE_TT_PROJECT1 UIO_OE_TT_PROJECT2
+ UIO_OE_TT_PROJECT3 UIO_OE_TT_PROJECT4 UIO_OE_TT_PROJECT5 UIO_OE_TT_PROJECT6 UIO_OE_TT_PROJECT7
+ UIO_OUT_TT_PROJECT0 UIO_OUT_TT_PROJECT1 UIO_OUT_TT_PROJECT2 UIO_OUT_TT_PROJECT3
+ UIO_OUT_TT_PROJECT4 UIO_OUT_TT_PROJECT5 UIO_OUT_TT_PROJECT6 UIO_OUT_TT_PROJECT7
+ UI_IN_TT_PROJECT0 UI_IN_TT_PROJECT1 UI_IN_TT_PROJECT2 UI_IN_TT_PROJECT3 UI_IN_TT_PROJECT4
+ UI_IN_TT_PROJECT5 UI_IN_TT_PROJECT6 UI_IN_TT_PROJECT7 UO_OUT_TT_PROJECT0 UO_OUT_TT_PROJECT1
+ UO_OUT_TT_PROJECT2 UO_OUT_TT_PROJECT3 UO_OUT_TT_PROJECT4 UO_OUT_TT_PROJECT5 UO_OUT_TT_PROJECT6
+ UO_OUT_TT_PROJECT7 UserCLK UserCLKo VGND VPWR W1END[0] W1END[1] W1END[2] W1END[3]
+ W2END[0] W2END[1] W2END[2] W2END[3] W2END[4] W2END[5] W2END[6] W2END[7] W2MID[0]
+ W2MID[1] W2MID[2] W2MID[3] W2MID[4] W2MID[5] W2MID[6] W2MID[7] W6END[0] W6END[10]
+ W6END[11] W6END[1] W6END[2] W6END[3] W6END[4] W6END[5] W6END[6] W6END[7] W6END[8]
+ W6END[9] WW4END[0] WW4END[10] WW4END[11] WW4END[12] WW4END[13] WW4END[14] WW4END[15]
+ WW4END[1] WW4END[2] WW4END[3] WW4END[4] WW4END[5] WW4END[6] WW4END[7] WW4END[8]
+ WW4END[9]
XFILLER_22_166 VPWR VGND sg13g2_fill_1
X_432_ Inst_W_TT_IF_ConfigMem.Inst_frame3_bit17.Q UIO_OUT_TT_PROJECT3 _117_ _141_
+ _039_ Inst_W_TT_IF_ConfigMem.Inst_frame3_bit16.Q Inst_W_TT_IF_switch_matrix.E6BEG11
+ VPWR VGND sg13g2_mux4_1
X_363_ _138_ VPWR _139_ VGND Inst_W_TT_IF_ConfigMem.Inst_frame3_bit22.Q _137_ sg13g2_o21ai_1
XFILLER_3_34 VPWR VGND sg13g2_fill_1
X_501_ _207_ W6END[0] Inst_W_TT_IF_ConfigMem.Inst_frame0_bit25.Q VPWR VGND sg13g2_nand2b_1
XFILLER_9_126 VPWR VGND sg13g2_decap_4
X_294_ Inst_W_TT_IF_ConfigMem.Inst_frame2_bit17.Q _077_ _079_ VPWR VGND Inst_W_TT_IF_ConfigMem.Inst_frame2_bit16.Q
+ sg13g2_nand3b_1
X_415_ VGND VPWR _006_ _017_ _183_ _015_ sg13g2_a21oi_1
XFILLER_37_51 VPWR VGND sg13g2_decap_8
X_346_ Inst_W_TT_IF_ConfigMem.Inst_frame3_bit27.Q W2MID[3] W2END[3] WW4END[3] WW4END[11]
+ Inst_W_TT_IF_ConfigMem.Inst_frame3_bit28.Q _124_ VPWR VGND sg13g2_mux4_1
X_277_ Inst_W_TT_IF_ConfigMem.Inst_frame2_bit22.Q WW4END[12] _064_ VPWR VGND sg13g2_nor2b_1
XFILLER_23_42 VPWR VGND sg13g2_fill_1
X_895_ Inst_W_TT_IF_switch_matrix.N1BEG0 N1BEG[0] VPWR VGND sg13g2_buf_1
X_964_ Inst_W_TT_IF_switch_matrix.S4BEG1 S4BEG[13] VPWR VGND sg13g2_buf_1
XFILLER_2_121 VPWR VGND sg13g2_decap_8
X_329_ _107_ VPWR _110_ VGND Inst_W_TT_IF_ConfigMem.Inst_frame2_bit5.Q _109_ sg13g2_o21ai_1
XFILLER_29_0 VPWR VGND sg13g2_fill_2
X_878_ FrameStrobe[3] FrameStrobe_O[3] VPWR VGND sg13g2_buf_1
X_680_ FrameData[14] FrameStrobe[3] Inst_W_TT_IF_ConfigMem.Inst_frame3_bit14.Q VPWR
+ VGND sg13g2_dlhq_1
XFILLER_22_7 VPWR VGND sg13g2_decap_8
X_947_ S2MID[4] S2BEGb[4] VPWR VGND sg13g2_buf_1
X_663_ FrameData[29] FrameStrobe[4] Inst_W_TT_IF_ConfigMem.Inst_frame4_bit29.Q VPWR
+ VGND sg13g2_dlhq_1
X_732_ FrameData[2] FrameStrobe[1] Inst_W_TT_IF_ConfigMem.Inst_frame1_bit2.Q VPWR
+ VGND sg13g2_dlhq_1
XFILLER_28_183 VPWR VGND sg13g2_fill_2
X_594_ FrameData[24] FrameStrobe[6] Inst_W_TT_IF_ConfigMem.Inst_frame6_bit24.Q VPWR
+ VGND sg13g2_dlhq_1
X_801_ Inst_W_TT_IF_switch_matrix.E2BEG2 E2BEG[2] VPWR VGND sg13g2_buf_1
XANTENNA_5 VPWR VGND N2END[6] sg13g2_antennanp
XFILLER_43_197 VPWR VGND sg13g2_fill_2
XFILLER_34_197 VPWR VGND sg13g2_fill_2
XFILLER_34_153 VPWR VGND sg13g2_decap_4
XFILLER_40_178 VPWR VGND sg13g2_fill_1
XFILLER_40_112 VPWR VGND sg13g2_decap_4
XFILLER_15_98 VPWR VGND sg13g2_fill_2
X_646_ FrameData[12] FrameStrobe[4] Inst_W_TT_IF_ConfigMem.Inst_frame4_bit12.Q VPWR
+ VGND sg13g2_dlhq_1
XFILLER_31_156 VPWR VGND sg13g2_fill_2
X_577_ FrameData[7] FrameStrobe[6] Inst_W_TT_IF_ConfigMem.Inst_frame6_bit7.Q VPWR
+ VGND sg13g2_dlhq_1
X_715_ FrameData[17] FrameStrobe[2] Inst_W_TT_IF_ConfigMem.Inst_frame2_bit17.Q VPWR
+ VGND sg13g2_dlhq_1
XFILLER_11_0 VPWR VGND sg13g2_fill_2
XFILLER_47_9 VPWR VGND sg13g2_fill_1
X_431_ _195_ VPWR ENA_TT_PROJECT VGND Inst_W_TT_IF_ConfigMem.Inst_frame1_bit3.Q _196_
+ sg13g2_o21ai_1
X_362_ Inst_W_TT_IF_ConfigMem.Inst_frame3_bit22.Q _084_ _138_ VPWR VGND Inst_W_TT_IF_ConfigMem.Inst_frame3_bit21.Q
+ sg13g2_nand3b_1
X_500_ N1END[0] Inst_W_TT_IF_ConfigMem.Inst_frame0_bit24.Q Inst_W_TT_IF_ConfigMem.Inst_frame0_bit25.Q
+ _206_ VPWR VGND sg13g2_nor3_1
X_293_ Inst_W_TT_IF_ConfigMem.Inst_frame2_bit17.Q W2MID[2] WW4END[2] W2END[2] WW4END[10]
+ Inst_W_TT_IF_ConfigMem.Inst_frame2_bit16.Q _078_ VPWR VGND sg13g2_mux4_1
XFILLER_13_167 VPWR VGND sg13g2_decap_4
X_629_ FrameData[27] FrameStrobe[5] Inst_W_TT_IF_ConfigMem.Inst_frame5_bit27.Q VPWR
+ VGND sg13g2_dlhq_1
XFILLER_53_40 VPWR VGND sg13g2_decap_8
XFILLER_52_7 VPWR VGND sg13g2_fill_2
X_345_ Inst_W_TT_IF_ConfigMem.Inst_frame1_bit14.Q N1END[3] N4END[3] S1END[3] S4END[3]
+ Inst_W_TT_IF_ConfigMem.Inst_frame1_bit15.Q _123_ VPWR VGND sg13g2_mux4_1
X_414_ VGND VPWR _015_ _181_ _182_ _016_ sg13g2_a21oi_1
X_276_ VPWR _063_ _062_ VGND sg13g2_inv_1
XFILLER_5_174 VPWR VGND sg13g2_decap_4
XFILLER_5_185 VPWR VGND sg13g2_fill_1
XFILLER_5_196 VPWR VGND sg13g2_decap_4
X_894_ FrameStrobe[19] FrameStrobe_O[19] VPWR VGND sg13g2_buf_1
X_259_ Inst_W_TT_IF_ConfigMem.Inst_frame0_bit4.Q N1END[2] N4END[2] S1END[2] S4END[2]
+ Inst_W_TT_IF_ConfigMem.Inst_frame0_bit5.Q _048_ VPWR VGND sg13g2_mux4_1
X_963_ Inst_W_TT_IF_switch_matrix.S4BEG0 S4BEG[12] VPWR VGND sg13g2_buf_1
XFILLER_2_199 VPWR VGND sg13g2_fill_1
X_328_ VGND VPWR Inst_W_TT_IF_ConfigMem.Inst_frame2_bit4.Q _105_ _109_ _108_ sg13g2_a21oi_1
XFILLER_34_97 VPWR VGND sg13g2_fill_2
XFILLER_34_75 VPWR VGND sg13g2_decap_4
XFILLER_18_98 VPWR VGND sg13g2_fill_1
XFILLER_18_32 VPWR VGND sg13g2_fill_1
XFILLER_41_0 VPWR VGND sg13g2_decap_8
X_877_ FrameStrobe[2] FrameStrobe_O[2] VPWR VGND sg13g2_buf_1
X_946_ S2MID[3] S2BEGb[3] VPWR VGND sg13g2_buf_1
XFILLER_15_7 VPWR VGND sg13g2_decap_4
XFILLER_52_198 VPWR VGND sg13g2_fill_2
X_662_ FrameData[28] FrameStrobe[4] Inst_W_TT_IF_ConfigMem.Inst_frame4_bit28.Q VPWR
+ VGND sg13g2_dlhq_1
X_800_ Inst_W_TT_IF_switch_matrix.E2BEG1 E2BEG[1] VPWR VGND sg13g2_buf_1
X_731_ FrameData[1] FrameStrobe[1] Inst_W_TT_IF_ConfigMem.Inst_frame1_bit1.Q VPWR
+ VGND sg13g2_dlhq_1
X_929_ Inst_W_TT_IF_switch_matrix.N4BEG2 N4BEG[14] VPWR VGND sg13g2_buf_1
XANTENNA_6 VPWR VGND N2END[7] sg13g2_antennanp
XFILLER_43_176 VPWR VGND sg13g2_fill_1
X_593_ FrameData[23] FrameStrobe[6] Inst_W_TT_IF_ConfigMem.Inst_frame6_bit23.Q VPWR
+ VGND sg13g2_dlhq_1
XFILLER_40_135 VPWR VGND sg13g2_decap_8
XFILLER_25_198 VPWR VGND sg13g2_fill_2
XFILLER_25_176 VPWR VGND sg13g2_fill_1
XFILLER_15_66 VPWR VGND sg13g2_fill_1
X_645_ FrameData[11] FrameStrobe[4] Inst_W_TT_IF_ConfigMem.Inst_frame4_bit11.Q VPWR
+ VGND sg13g2_dlhq_1
XFILLER_31_179 VPWR VGND sg13g2_fill_2
X_714_ FrameData[16] FrameStrobe[2] Inst_W_TT_IF_ConfigMem.Inst_frame2_bit16.Q VPWR
+ VGND sg13g2_dlhq_1
X_576_ FrameData[6] FrameStrobe[6] Inst_W_TT_IF_ConfigMem.Inst_frame6_bit6.Q VPWR
+ VGND sg13g2_dlhq_1
XFILLER_22_124 VPWR VGND sg13g2_decap_4
X_430_ _196_ N2MID[6] Inst_W_TT_IF_ConfigMem.Inst_frame1_bit2.Q VPWR VGND sg13g2_nand2b_1
XFILLER_26_21 VPWR VGND sg13g2_fill_2
X_361_ VGND VPWR Inst_W_TT_IF_ConfigMem.Inst_frame3_bit21.Q _135_ _137_ _136_ sg13g2_a21oi_1
X_292_ Inst_W_TT_IF_ConfigMem.Inst_frame0_bit13.Q N2MID[2] S2MID[2] N2END[2] S2END[2]
+ Inst_W_TT_IF_ConfigMem.Inst_frame0_bit12.Q _077_ VPWR VGND sg13g2_mux4_1
XFILLER_13_146 VPWR VGND sg13g2_decap_8
X_628_ FrameData[26] FrameStrobe[5] Inst_W_TT_IF_ConfigMem.Inst_frame5_bit26.Q VPWR
+ VGND sg13g2_dlhq_1
X_559_ FrameData[21] FrameStrobe[7] Inst_W_TT_IF_ConfigMem.Inst_frame7_bit21.Q VPWR
+ VGND sg13g2_dlhq_1
XFILLER_12_45 VPWR VGND sg13g2_decap_8
X_275_ Inst_W_TT_IF_ConfigMem.Inst_frame0_bit16.Q N2MID[4] N2END[4] S2MID[4] S2END[4]
+ Inst_W_TT_IF_ConfigMem.Inst_frame0_bit17.Q _062_ VPWR VGND sg13g2_mux4_1
X_413_ W6END[9] _054_ Inst_W_TT_IF_ConfigMem.Inst_frame7_bit7.Q _181_ VPWR VGND sg13g2_mux2_1
XFILLER_37_20 VPWR VGND sg13g2_decap_8
X_344_ _122_ _121_ Inst_W_TT_IF_ConfigMem.Inst_frame2_bit0.Q UI_IN_TT_PROJECT4 VPWR
+ VGND sg13g2_mux2_1
X_962_ S4END[15] S4BEG[11] VPWR VGND sg13g2_buf_1
X_893_ FrameStrobe[18] FrameStrobe_O[18] VPWR VGND sg13g2_buf_1
XFILLER_23_33 VPWR VGND sg13g2_decap_8
XFILLER_23_11 VPWR VGND sg13g2_fill_1
XFILLER_2_178 VPWR VGND sg13g2_fill_2
XFILLER_9_35 VPWR VGND sg13g2_fill_1
X_258_ Inst_W_TT_IF_ConfigMem.Inst_frame0_bit20.Q N2MID[6] N2END[6] S2MID[6] S2END[6]
+ Inst_W_TT_IF_ConfigMem.Inst_frame0_bit21.Q _047_ VPWR VGND sg13g2_mux4_1
X_327_ Inst_W_TT_IF_ConfigMem.Inst_frame2_bit4.Q W6END[6] _108_ VPWR VGND sg13g2_nor2b_1
XFILLER_50_42 VPWR VGND sg13g2_decap_4
X_876_ FrameStrobe[1] FrameStrobe_O[1] VPWR VGND sg13g2_buf_1
X_945_ S2MID[2] S2BEGb[2] VPWR VGND sg13g2_buf_1
XFILLER_1_0 VPWR VGND sg13g2_fill_1
XFILLER_52_166 VPWR VGND sg13g2_fill_1
XFILLER_20_67 VPWR VGND sg13g2_fill_2
X_928_ Inst_W_TT_IF_switch_matrix.N4BEG1 N4BEG[13] VPWR VGND sg13g2_buf_1
XANTENNA_7 VPWR VGND N2MID[3] sg13g2_antennanp
X_661_ FrameData[27] FrameStrobe[4] Inst_W_TT_IF_ConfigMem.Inst_frame4_bit27.Q VPWR
+ VGND sg13g2_dlhq_1
XFILLER_43_199 VPWR VGND sg13g2_fill_1
XFILLER_43_144 VPWR VGND sg13g2_fill_2
XFILLER_43_111 VPWR VGND sg13g2_decap_4
XFILLER_28_163 VPWR VGND sg13g2_fill_2
XFILLER_29_98 VPWR VGND sg13g2_fill_1
X_592_ FrameData[22] FrameStrobe[6] Inst_W_TT_IF_ConfigMem.Inst_frame6_bit22.Q VPWR
+ VGND sg13g2_dlhq_1
XFILLER_6_58 VPWR VGND sg13g2_fill_2
X_730_ FrameData[0] FrameStrobe[1] Inst_W_TT_IF_ConfigMem.Inst_frame1_bit0.Q VPWR
+ VGND sg13g2_dlhq_1
X_859_ FrameData[16] FrameData_O[16] VPWR VGND sg13g2_buf_1
XFILLER_34_199 VPWR VGND sg13g2_fill_1
X_644_ FrameData[10] FrameStrobe[4] Inst_W_TT_IF_ConfigMem.Inst_frame4_bit10.Q VPWR
+ VGND sg13g2_dlhq_1
XFILLER_31_22 VPWR VGND sg13g2_fill_2
X_575_ FrameData[5] FrameStrobe[6] Inst_W_TT_IF_ConfigMem.Inst_frame6_bit5.Q VPWR
+ VGND sg13g2_dlhq_1
X_713_ FrameData[15] FrameStrobe[2] Inst_W_TT_IF_ConfigMem.Inst_frame2_bit15.Q VPWR
+ VGND sg13g2_dlhq_1
XFILLER_31_125 VPWR VGND sg13g2_decap_8
XFILLER_22_103 VPWR VGND sg13g2_decap_8
XFILLER_16_199 VPWR VGND sg13g2_fill_1
XFILLER_11_2 VPWR VGND sg13g2_fill_1
X_291_ Inst_W_TT_IF_ConfigMem.Inst_frame1_bit28.Q N1END[2] N4END[2] S1END[2] S4END[2]
+ Inst_W_TT_IF_ConfigMem.Inst_frame1_bit29.Q _076_ VPWR VGND sg13g2_mux4_1
XFILLER_26_88 VPWR VGND sg13g2_decap_8
XFILLER_26_44 VPWR VGND sg13g2_decap_4
X_360_ Inst_W_TT_IF_ConfigMem.Inst_frame3_bit21.Q W6END[1] _136_ VPWR VGND sg13g2_nor2b_1
XFILLER_13_114 VPWR VGND sg13g2_fill_2
X_627_ FrameData[25] FrameStrobe[5] Inst_W_TT_IF_ConfigMem.Inst_frame5_bit25.Q VPWR
+ VGND sg13g2_dlhq_1
X_489_ _198_ W6END[3] Inst_W_TT_IF_ConfigMem.Inst_frame0_bit31.Q VPWR VGND sg13g2_nand2b_1
X_558_ FrameData[20] FrameStrobe[7] Inst_W_TT_IF_ConfigMem.Inst_frame7_bit20.Q VPWR
+ VGND sg13g2_dlhq_1
XFILLER_3_59 VPWR VGND sg13g2_fill_1
XFILLER_8_195 VPWR VGND sg13g2_decap_4
XFILLER_53_75 VPWR VGND sg13g2_fill_2
X_274_ Inst_W_TT_IF_ConfigMem.Inst_frame0_bit0.Q N1END[0] N4END[0] S1END[0] S4END[0]
+ Inst_W_TT_IF_ConfigMem.Inst_frame0_bit1.Q _061_ VPWR VGND sg13g2_mux4_1
X_412_ VGND VPWR _180_ _179_ _178_ sg13g2_or2_1
X_343_ Inst_W_TT_IF_ConfigMem.Inst_frame3_bit31.Q W2MID[4] WW4END[4] W2END[4] WW4END[12]
+ Inst_W_TT_IF_ConfigMem.Inst_frame3_bit30.Q _122_ VPWR VGND sg13g2_mux4_1
XFILLER_4_80 VPWR VGND sg13g2_fill_1
X_892_ FrameStrobe[17] FrameStrobe_O[17] VPWR VGND sg13g2_buf_1
X_961_ S4END[14] S4BEG[10] VPWR VGND sg13g2_buf_1
XFILLER_23_67 VPWR VGND sg13g2_decap_4
X_326_ Inst_W_TT_IF_ConfigMem.Inst_frame2_bit5.Q _047_ _107_ VPWR VGND Inst_W_TT_IF_ConfigMem.Inst_frame2_bit4.Q
+ sg13g2_nand3b_1
X_257_ _046_ _045_ Inst_W_TT_IF_ConfigMem.Inst_frame1_bit1.Q UIO_IN_TT_PROJECT7 VPWR
+ VGND sg13g2_mux2_1
X_875_ FrameStrobe[0] FrameStrobe_O[0] VPWR VGND sg13g2_buf_1
X_309_ Inst_W_TT_IF_ConfigMem.Inst_frame1_bit24.Q N1END[0] N4END[0] S1END[0] S4END[0]
+ Inst_W_TT_IF_ConfigMem.Inst_frame1_bit25.Q _092_ VPWR VGND sg13g2_mux4_1
XFILLER_34_99 VPWR VGND sg13g2_fill_1
X_944_ S2MID[1] S2BEGb[1] VPWR VGND sg13g2_buf_1
XFILLER_37_197 VPWR VGND sg13g2_fill_2
XFILLER_27_0 VPWR VGND sg13g2_decap_8
X_660_ FrameData[26] FrameStrobe[4] Inst_W_TT_IF_ConfigMem.Inst_frame4_bit26.Q VPWR
+ VGND sg13g2_dlhq_1
X_591_ FrameData[21] FrameStrobe[6] Inst_W_TT_IF_ConfigMem.Inst_frame6_bit21.Q VPWR
+ VGND sg13g2_dlhq_1
XFILLER_28_197 VPWR VGND sg13g2_fill_2
XANTENNA_8 VPWR VGND N2MID[3] sg13g2_antennanp
X_927_ Inst_W_TT_IF_switch_matrix.N4BEG0 N4BEG[12] VPWR VGND sg13g2_buf_1
X_858_ FrameData[15] FrameData_O[15] VPWR VGND sg13g2_buf_1
X_789_ FrameData[27] FrameStrobe[0] Inst_W_TT_IF_ConfigMem.Inst_frame0_bit27.Q VPWR
+ VGND sg13g2_dlhq_1
X_712_ FrameData[14] FrameStrobe[2] Inst_W_TT_IF_ConfigMem.Inst_frame2_bit14.Q VPWR
+ VGND sg13g2_dlhq_1
X_643_ FrameData[9] FrameStrobe[4] Inst_W_TT_IF_ConfigMem.Inst_frame4_bit9.Q VPWR
+ VGND sg13g2_dlhq_1
X_574_ FrameData[4] FrameStrobe[6] Inst_W_TT_IF_ConfigMem.Inst_frame6_bit4.Q VPWR
+ VGND sg13g2_dlhq_1
XFILLER_22_159 VPWR VGND sg13g2_decap_8
XFILLER_42_88 VPWR VGND sg13g2_decap_4
X_626_ FrameData[24] FrameStrobe[5] Inst_W_TT_IF_ConfigMem.Inst_frame5_bit24.Q VPWR
+ VGND sg13g2_dlhq_1
X_488_ N1END[3] Inst_W_TT_IF_ConfigMem.Inst_frame0_bit30.Q Inst_W_TT_IF_ConfigMem.Inst_frame0_bit31.Q
+ _197_ VPWR VGND sg13g2_nor3_1
X_290_ _075_ _074_ Inst_W_TT_IF_ConfigMem.Inst_frame2_bit21.Q UIO_IN_TT_PROJECT3 VPWR
+ VGND sg13g2_mux2_1
X_557_ FrameData[19] FrameStrobe[7] Inst_W_TT_IF_ConfigMem.Inst_frame7_bit19.Q VPWR
+ VGND sg13g2_dlhq_1
X_411_ Inst_W_TT_IF_ConfigMem.Inst_frame7_bit5.Q VPWR _179_ VGND _017_ _084_ sg13g2_o21ai_1
XFILLER_37_77 VPWR VGND sg13g2_fill_1
XFILLER_37_44 VPWR VGND sg13g2_decap_8
X_273_ _056_ _060_ Inst_W_TT_IF_ConfigMem.Inst_frame2_bit27.Q UIO_IN_TT_PROJECT5 VPWR
+ VGND sg13g2_mux2_1
X_342_ _120_ VPWR _121_ VGND Inst_W_TT_IF_ConfigMem.Inst_frame3_bit31.Q _119_ sg13g2_o21ai_1
X_609_ FrameData[7] FrameStrobe[5] Inst_W_TT_IF_ConfigMem.Inst_frame5_bit7.Q VPWR
+ VGND sg13g2_dlhq_1
X_891_ FrameStrobe[16] FrameStrobe_O[16] VPWR VGND sg13g2_buf_1
X_960_ S4END[13] S4BEG[9] VPWR VGND sg13g2_buf_1
XFILLER_49_184 VPWR VGND sg13g2_fill_1
X_325_ Inst_W_TT_IF_ConfigMem.Inst_frame2_bit4.Q W2MID[6] W2END[6] WW4END[6] WW4END[14]
+ Inst_W_TT_IF_ConfigMem.Inst_frame2_bit5.Q _106_ VPWR VGND sg13g2_mux4_1
X_256_ Inst_W_TT_IF_ConfigMem.Inst_frame2_bit31.Q W1END[3] W2MID[7] W2END[7] WW4END[7]
+ Inst_W_TT_IF_ConfigMem.Inst_frame1_bit0.Q _046_ VPWR VGND sg13g2_mux4_1
X_874_ FrameData[31] FrameData_O[31] VPWR VGND sg13g2_buf_1
X_943_ S2MID[0] S2BEGb[0] VPWR VGND sg13g2_buf_1
X_239_ Inst_W_TT_IF_ConfigMem.Inst_frame1_bit5.Q Inst_W_TT_IF_ConfigMem.Inst_frame1_bit6.Q
+ _030_ VPWR VGND sg13g2_nor2_1
XFILLER_1_82 VPWR VGND sg13g2_fill_1
X_308_ VPWR _091_ _090_ VGND sg13g2_inv_1
X_590_ FrameData[20] FrameStrobe[6] Inst_W_TT_IF_ConfigMem.Inst_frame6_bit20.Q VPWR
+ VGND sg13g2_dlhq_1
XFILLER_28_165 VPWR VGND sg13g2_fill_1
X_926_ N4END[15] N4BEG[11] VPWR VGND sg13g2_buf_1
XANTENNA_9 VPWR VGND N2MID[3] sg13g2_antennanp
X_857_ FrameData[14] FrameData_O[14] VPWR VGND sg13g2_buf_1
X_788_ FrameData[26] FrameStrobe[0] Inst_W_TT_IF_ConfigMem.Inst_frame0_bit26.Q VPWR
+ VGND sg13g2_dlhq_1
XFILLER_34_157 VPWR VGND sg13g2_fill_2
XFILLER_34_146 VPWR VGND sg13g2_decap_8
XFILLER_34_124 VPWR VGND sg13g2_decap_4
XFILLER_19_176 VPWR VGND sg13g2_fill_2
XFILLER_40_116 VPWR VGND sg13g2_fill_2
XFILLER_31_24 VPWR VGND sg13g2_fill_1
XFILLER_25_124 VPWR VGND sg13g2_decap_4
X_642_ FrameData[8] FrameStrobe[4] Inst_W_TT_IF_ConfigMem.Inst_frame4_bit8.Q VPWR
+ VGND sg13g2_dlhq_1
XFILLER_31_149 VPWR VGND sg13g2_decap_8
X_573_ FrameData[3] FrameStrobe[6] Inst_W_TT_IF_ConfigMem.Inst_frame6_bit3.Q VPWR
+ VGND sg13g2_dlhq_1
X_711_ FrameData[13] FrameStrobe[2] Inst_W_TT_IF_ConfigMem.Inst_frame2_bit13.Q VPWR
+ VGND sg13g2_dlhq_1
X_909_ N2MID[2] N2BEGb[2] VPWR VGND sg13g2_buf_1
XFILLER_30_193 VPWR VGND sg13g2_decap_8
X_625_ FrameData[23] FrameStrobe[5] Inst_W_TT_IF_ConfigMem.Inst_frame5_bit23.Q VPWR
+ VGND sg13g2_dlhq_1
XFILLER_13_116 VPWR VGND sg13g2_fill_1
X_487_ Inst_W_TT_IF_ConfigMem.Inst_frame7_bit22.Q W2MID[7] W2END[7] W6END[8] _090_
+ Inst_W_TT_IF_ConfigMem.Inst_frame7_bit23.Q Inst_W_TT_IF_switch_matrix.S2BEG0 VPWR
+ VGND sg13g2_mux4_1
X_556_ FrameData[18] FrameStrobe[7] Inst_W_TT_IF_ConfigMem.Inst_frame7_bit18.Q VPWR
+ VGND sg13g2_dlhq_1
XFILLER_53_77 VPWR VGND sg13g2_fill_1
X_410_ Inst_W_TT_IF_ConfigMem.Inst_frame7_bit7.Q _135_ _178_ VPWR VGND sg13g2_nor2_1
X_272_ _057_ VPWR _060_ VGND Inst_W_TT_IF_ConfigMem.Inst_frame2_bit26.Q _059_ sg13g2_o21ai_1
X_341_ Inst_W_TT_IF_ConfigMem.Inst_frame3_bit31.Q _062_ _120_ VPWR VGND Inst_W_TT_IF_ConfigMem.Inst_frame3_bit30.Q
+ sg13g2_nand3b_1
XFILLER_10_119 VPWR VGND sg13g2_decap_4
XFILLER_12_59 VPWR VGND sg13g2_decap_4
X_608_ FrameData[6] FrameStrobe[5] Inst_W_TT_IF_ConfigMem.Inst_frame5_bit6.Q VPWR
+ VGND sg13g2_dlhq_1
X_539_ FrameData[1] FrameStrobe[7] Inst_W_TT_IF_ConfigMem.Inst_frame7_bit1.Q VPWR
+ VGND sg13g2_dlhq_1
X_324_ Inst_W_TT_IF_ConfigMem.Inst_frame1_bit20.Q N1END[2] N4END[2] S1END[2] S4END[2]
+ Inst_W_TT_IF_ConfigMem.Inst_frame1_bit21.Q _105_ VPWR VGND sg13g2_mux4_1
X_890_ FrameStrobe[15] FrameStrobe_O[15] VPWR VGND sg13g2_buf_1
XFILLER_48_33 VPWR VGND sg13g2_fill_1
XFILLER_48_11 VPWR VGND sg13g2_fill_1
X_255_ _044_ VPWR _045_ VGND Inst_W_TT_IF_ConfigMem.Inst_frame1_bit0.Q _043_ sg13g2_o21ai_1
X_873_ FrameData[30] FrameData_O[30] VPWR VGND sg13g2_buf_1
XFILLER_50_89 VPWR VGND sg13g2_decap_4
XFILLER_34_79 VPWR VGND sg13g2_fill_1
XFILLER_34_68 VPWR VGND sg13g2_decap_8
XFILLER_18_69 VPWR VGND sg13g2_fill_1
X_942_ Inst_W_TT_IF_switch_matrix.S2BEG7 S2BEG[7] VPWR VGND sg13g2_buf_1
XFILLER_46_199 VPWR VGND sg13g2_fill_1
X_307_ Inst_W_TT_IF_ConfigMem.Inst_frame0_bit8.Q N2MID[0] N2END[0] S2MID[0] S2END[0]
+ Inst_W_TT_IF_ConfigMem.Inst_frame0_bit9.Q _090_ VPWR VGND sg13g2_mux4_1
XFILLER_37_199 VPWR VGND sg13g2_fill_1
X_238_ VPWR VGND _028_ Inst_W_TT_IF_ConfigMem.Inst_frame1_bit7.Q _027_ _021_ _029_
+ _023_ sg13g2_a221oi_1
XFILLER_1_94 VPWR VGND sg13g2_fill_1
XFILLER_28_199 VPWR VGND sg13g2_fill_1
X_925_ N4END[14] N4BEG[10] VPWR VGND sg13g2_buf_1
X_856_ FrameData[13] FrameData_O[13] VPWR VGND sg13g2_buf_1
XFILLER_19_90 VPWR VGND sg13g2_decap_8
X_787_ FrameData[25] FrameStrobe[0] Inst_W_TT_IF_ConfigMem.Inst_frame0_bit25.Q VPWR
+ VGND sg13g2_dlhq_1
XFILLER_32_0 VPWR VGND sg13g2_decap_4
XFILLER_25_169 VPWR VGND sg13g2_decap_8
X_641_ FrameData[7] FrameStrobe[4] Inst_W_TT_IF_ConfigMem.Inst_frame4_bit7.Q VPWR
+ VGND sg13g2_dlhq_1
X_572_ FrameData[2] FrameStrobe[6] Inst_W_TT_IF_ConfigMem.Inst_frame6_bit2.Q VPWR
+ VGND sg13g2_dlhq_1
X_710_ FrameData[12] FrameStrobe[2] Inst_W_TT_IF_ConfigMem.Inst_frame2_bit12.Q VPWR
+ VGND sg13g2_dlhq_1
X_908_ N2MID[1] N2BEGb[1] VPWR VGND sg13g2_buf_1
X_839_ Inst_W_TT_IF_switch_matrix.EE4BEG12 EE4BEG[12] VPWR VGND sg13g2_buf_1
XFILLER_22_128 VPWR VGND sg13g2_fill_2
XFILLER_22_117 VPWR VGND sg13g2_decap_8
XFILLER_7_71 VPWR VGND sg13g2_decap_4
XFILLER_42_46 VPWR VGND sg13g2_fill_2
XFILLER_13_139 VPWR VGND sg13g2_decap_8
X_555_ FrameData[17] FrameStrobe[7] Inst_W_TT_IF_ConfigMem.Inst_frame7_bit17.Q VPWR
+ VGND sg13g2_dlhq_1
X_624_ FrameData[22] FrameStrobe[5] Inst_W_TT_IF_ConfigMem.Inst_frame5_bit22.Q VPWR
+ VGND sg13g2_dlhq_1
X_486_ Inst_W_TT_IF_ConfigMem.Inst_frame7_bit24.Q W2MID[6] W2END[6] W6END[9] _084_
+ Inst_W_TT_IF_ConfigMem.Inst_frame7_bit25.Q Inst_W_TT_IF_switch_matrix.S2BEG1 VPWR
+ VGND sg13g2_mux4_1
XFILLER_12_38 VPWR VGND sg13g2_decap_8
X_271_ VGND VPWR Inst_W_TT_IF_ConfigMem.Inst_frame2_bit25.Q _054_ _059_ _058_ sg13g2_a21oi_1
X_340_ VGND VPWR Inst_W_TT_IF_ConfigMem.Inst_frame3_bit30.Q _117_ _119_ _118_ sg13g2_a21oi_1
X_607_ FrameData[5] FrameStrobe[5] Inst_W_TT_IF_ConfigMem.Inst_frame5_bit5.Q VPWR
+ VGND sg13g2_dlhq_1
X_538_ FrameData[0] FrameStrobe[7] Inst_W_TT_IF_ConfigMem.Inst_frame7_bit0.Q VPWR
+ VGND sg13g2_dlhq_1
X_469_ Inst_W_TT_IF_ConfigMem.Inst_frame5_bit7.Q UO_OUT_TT_PROJECT6 _084_ UIO_OUT_TT_PROJECT6
+ _047_ Inst_W_TT_IF_ConfigMem.Inst_frame5_bit6.Q Inst_W_TT_IF_switch_matrix.E2BEG6
+ VPWR VGND sg13g2_mux4_1
X_323_ _100_ _104_ Inst_W_TT_IF_ConfigMem.Inst_frame2_bit9.Q UI_IN_TT_PROJECT7 VPWR
+ VGND sg13g2_mux2_1
X_254_ Inst_W_TT_IF_ConfigMem.Inst_frame1_bit0.Q _039_ _044_ VPWR VGND Inst_W_TT_IF_ConfigMem.Inst_frame2_bit31.Q
+ sg13g2_nand3b_1
XFILLER_3_7 VPWR VGND sg13g2_decap_4
XFILLER_50_46 VPWR VGND sg13g2_fill_1
XFILLER_50_35 VPWR VGND sg13g2_decap_8
X_941_ Inst_W_TT_IF_switch_matrix.S2BEG6 S2BEG[6] VPWR VGND sg13g2_buf_1
X_872_ FrameData[29] FrameData_O[29] VPWR VGND sg13g2_buf_1
XFILLER_40_90 VPWR VGND sg13g2_fill_1
X_237_ VGND VPWR _000_ _024_ _028_ Inst_W_TT_IF_ConfigMem.Inst_frame1_bit6.Q sg13g2_a21oi_1
X_306_ _089_ _088_ Inst_W_TT_IF_ConfigMem.Inst_frame2_bit15.Q UIO_IN_TT_PROJECT1 VPWR
+ VGND sg13g2_mux2_1
XFILLER_28_145 VPWR VGND sg13g2_fill_1
X_924_ N4END[13] N4BEG[9] VPWR VGND sg13g2_buf_1
X_855_ FrameData[12] FrameData_O[12] VPWR VGND sg13g2_buf_1
XFILLER_43_137 VPWR VGND sg13g2_decap_8
XFILLER_43_115 VPWR VGND sg13g2_fill_1
XFILLER_19_178 VPWR VGND sg13g2_fill_1
XFILLER_10_71 VPWR VGND sg13g2_fill_2
X_786_ FrameData[24] FrameStrobe[0] Inst_W_TT_IF_ConfigMem.Inst_frame0_bit24.Q VPWR
+ VGND sg13g2_dlhq_1
XFILLER_25_0 VPWR VGND sg13g2_fill_2
X_640_ FrameData[6] FrameStrobe[4] Inst_W_TT_IF_ConfigMem.Inst_frame4_bit6.Q VPWR
+ VGND sg13g2_dlhq_1
XFILLER_31_118 VPWR VGND sg13g2_decap_8
XFILLER_31_59 VPWR VGND sg13g2_fill_2
X_571_ FrameData[1] FrameStrobe[6] Inst_W_TT_IF_ConfigMem.Inst_frame6_bit1.Q VPWR
+ VGND sg13g2_dlhq_1
X_769_ FrameData[7] FrameStrobe[0] Inst_W_TT_IF_ConfigMem.Inst_frame0_bit7.Q VPWR
+ VGND sg13g2_dlhq_1
X_907_ N2MID[0] N2BEGb[0] VPWR VGND sg13g2_buf_1
X_838_ Inst_W_TT_IF_switch_matrix.EE4BEG11 EE4BEG[11] VPWR VGND sg13g2_buf_1
XFILLER_26_48 VPWR VGND sg13g2_fill_2
X_554_ FrameData[16] FrameStrobe[7] Inst_W_TT_IF_ConfigMem.Inst_frame7_bit16.Q VPWR
+ VGND sg13g2_dlhq_1
X_623_ FrameData[21] FrameStrobe[5] Inst_W_TT_IF_ConfigMem.Inst_frame5_bit21.Q VPWR
+ VGND sg13g2_dlhq_1
X_485_ Inst_W_TT_IF_ConfigMem.Inst_frame7_bit27.Q W2MID[5] W6END[10] W2END[5] _077_
+ Inst_W_TT_IF_ConfigMem.Inst_frame7_bit26.Q Inst_W_TT_IF_switch_matrix.S2BEG2 VPWR
+ VGND sg13g2_mux4_1
XFILLER_8_199 VPWR VGND sg13g2_fill_1
XFILLER_53_68 VPWR VGND sg13g2_fill_2
XFILLER_37_58 VPWR VGND sg13g2_fill_2
X_270_ Inst_W_TT_IF_ConfigMem.Inst_frame2_bit25.Q WW4END[13] _058_ VPWR VGND sg13g2_nor2b_1
X_468_ Inst_W_TT_IF_ConfigMem.Inst_frame5_bit9.Q UO_OUT_TT_PROJECT7 _090_ UIO_OUT_TT_PROJECT7
+ _039_ Inst_W_TT_IF_ConfigMem.Inst_frame5_bit8.Q Inst_W_TT_IF_switch_matrix.E2BEG7
+ VPWR VGND sg13g2_mux4_1
X_399_ Inst_W_TT_IF_switch_matrix.S4BEG0 _167_ _169_ _165_ _163_ VPWR VGND sg13g2_a22oi_1
X_606_ FrameData[4] FrameStrobe[5] Inst_W_TT_IF_ConfigMem.Inst_frame5_bit4.Q VPWR
+ VGND sg13g2_dlhq_1
X_537_ FrameData[31] FrameStrobe[8] Inst_W_TT_IF_ConfigMem.Inst_frame8_bit31.Q VPWR
+ VGND sg13g2_dlhq_1
X_322_ _101_ VPWR _104_ VGND Inst_W_TT_IF_ConfigMem.Inst_frame2_bit8.Q _103_ sg13g2_o21ai_1
XFILLER_2_139 VPWR VGND sg13g2_fill_2
XFILLER_2_128 VPWR VGND sg13g2_fill_2
X_253_ VGND VPWR Inst_W_TT_IF_ConfigMem.Inst_frame2_bit31.Q _041_ _043_ _042_ sg13g2_a21oi_1
XFILLER_50_25 VPWR VGND sg13g2_decap_4
X_871_ FrameData[28] FrameData_O[28] VPWR VGND sg13g2_buf_1
X_940_ Inst_W_TT_IF_switch_matrix.S2BEG5 S2BEG[5] VPWR VGND sg13g2_buf_1
X_236_ _027_ _025_ _026_ VPWR VGND sg13g2_nand2b_1
X_305_ Inst_W_TT_IF_ConfigMem.Inst_frame2_bit14.Q W2MID[1] WW4END[1] W2END[1] WW4END[9]
+ Inst_W_TT_IF_ConfigMem.Inst_frame2_bit13.Q _089_ VPWR VGND sg13g2_mux4_1
X_854_ FrameData[11] FrameData_O[11] VPWR VGND sg13g2_buf_1
X_923_ N4END[12] N4BEG[8] VPWR VGND sg13g2_buf_1