*SPEF "ieee 1481-1999"
*DESIGN "W_TT_IF"
*DATE "15:24:38 Thursday July 17, 2025"
*VENDOR "The OpenROAD Project"
*PROGRAM "OpenROAD"
*VERSION "341650e72dad0dc8571822ff8c5d9c5e365327f7"
*DESIGN_FLOW "NAME_SCOPE LOCAL" "PIN_CAP NONE"
*DIVIDER /
*DELIMITER :
*BUS_DELIMITER []
*T_UNIT 1 NS
*C_UNIT 1 PF
*R_UNIT 1 OHM
*L_UNIT 1 HENRY

*NAME_MAP
*1 CLK_TT_PROJECT
*2 E1BEG[0]
*3 E1BEG[1]
*4 E1BEG[2]
*5 E1BEG[3]
*6 E2BEG[0]
*7 E2BEG[1]
*8 E2BEG[2]
*9 E2BEG[3]
*10 E2BEG[4]
*11 E2BEG[5]
*12 E2BEG[6]
*13 E2BEG[7]
*14 E2BEGb[0]
*15 E2BEGb[1]
*16 E2BEGb[2]
*17 E2BEGb[3]
*18 E2BEGb[4]
*19 E2BEGb[5]
*20 E2BEGb[6]
*21 E2BEGb[7]
*22 E6BEG[0]
*23 E6BEG[10]
*24 E6BEG[11]
*25 E6BEG[1]
*26 E6BEG[2]
*27 E6BEG[3]
*28 E6BEG[4]
*29 E6BEG[5]
*30 E6BEG[6]
*31 E6BEG[7]
*32 E6BEG[8]
*33 E6BEG[9]
*34 EE4BEG[0]
*35 EE4BEG[10]
*36 EE4BEG[11]
*37 EE4BEG[12]
*38 EE4BEG[13]
*39 EE4BEG[14]
*40 EE4BEG[15]
*41 EE4BEG[1]
*42 EE4BEG[2]
*43 EE4BEG[3]
*44 EE4BEG[4]
*45 EE4BEG[5]
*46 EE4BEG[6]
*47 EE4BEG[7]
*48 EE4BEG[8]
*49 EE4BEG[9]
*50 ENA_TT_PROJECT
*51 FrameData[0]
*52 FrameData[10]
*53 FrameData[11]
*54 FrameData[12]
*55 FrameData[13]
*56 FrameData[14]
*57 FrameData[15]
*58 FrameData[16]
*59 FrameData[17]
*60 FrameData[18]
*61 FrameData[19]
*62 FrameData[1]
*63 FrameData[20]
*64 FrameData[21]
*65 FrameData[22]
*66 FrameData[23]
*67 FrameData[24]
*68 FrameData[25]
*69 FrameData[26]
*70 FrameData[27]
*71 FrameData[28]
*72 FrameData[29]
*73 FrameData[2]
*74 FrameData[30]
*75 FrameData[31]
*76 FrameData[3]
*77 FrameData[4]
*78 FrameData[5]
*79 FrameData[6]
*80 FrameData[7]
*81 FrameData[8]
*82 FrameData[9]
*83 FrameData_O[0]
*84 FrameData_O[10]
*85 FrameData_O[11]
*86 FrameData_O[12]
*87 FrameData_O[13]
*88 FrameData_O[14]
*89 FrameData_O[15]
*90 FrameData_O[16]
*91 FrameData_O[17]
*92 FrameData_O[18]
*93 FrameData_O[19]
*94 FrameData_O[1]
*95 FrameData_O[20]
*96 FrameData_O[21]
*97 FrameData_O[22]
*98 FrameData_O[23]
*99 FrameData_O[24]
*100 FrameData_O[25]
*101 FrameData_O[26]
*102 FrameData_O[27]
*103 FrameData_O[28]
*104 FrameData_O[29]
*105 FrameData_O[2]
*106 FrameData_O[30]
*107 FrameData_O[31]
*108 FrameData_O[3]
*109 FrameData_O[4]
*110 FrameData_O[5]
*111 FrameData_O[6]
*112 FrameData_O[7]
*113 FrameData_O[8]
*114 FrameData_O[9]
*115 FrameStrobe[0]
*116 FrameStrobe[10]
*117 FrameStrobe[11]
*118 FrameStrobe[12]
*119 FrameStrobe[13]
*120 FrameStrobe[14]
*121 FrameStrobe[15]
*122 FrameStrobe[16]
*123 FrameStrobe[17]
*124 FrameStrobe[18]
*125 FrameStrobe[19]
*126 FrameStrobe[1]
*127 FrameStrobe[2]
*128 FrameStrobe[3]
*129 FrameStrobe[4]
*130 FrameStrobe[5]
*131 FrameStrobe[6]
*132 FrameStrobe[7]
*133 FrameStrobe[8]
*134 FrameStrobe[9]
*135 FrameStrobe_O[0]
*136 FrameStrobe_O[10]
*137 FrameStrobe_O[11]
*138 FrameStrobe_O[12]
*139 FrameStrobe_O[13]
*140 FrameStrobe_O[14]
*141 FrameStrobe_O[15]
*142 FrameStrobe_O[16]
*143 FrameStrobe_O[17]
*144 FrameStrobe_O[18]
*145 FrameStrobe_O[19]
*146 FrameStrobe_O[1]
*147 FrameStrobe_O[2]
*148 FrameStrobe_O[3]
*149 FrameStrobe_O[4]
*150 FrameStrobe_O[5]
*151 FrameStrobe_O[6]
*152 FrameStrobe_O[7]
*153 FrameStrobe_O[8]
*154 FrameStrobe_O[9]
*155 N1BEG[0]
*156 N1BEG[1]
*157 N1BEG[2]
*158 N1BEG[3]
*159 N1END[0]
*160 N1END[1]
*161 N1END[2]
*162 N1END[3]
*163 N2BEG[0]
*164 N2BEG[1]
*165 N2BEG[2]
*166 N2BEG[3]
*167 N2BEG[4]
*168 N2BEG[5]
*169 N2BEG[6]
*170 N2BEG[7]
*171 N2BEGb[0]
*172 N2BEGb[1]
*173 N2BEGb[2]
*174 N2BEGb[3]
*175 N2BEGb[4]
*176 N2BEGb[5]
*177 N2BEGb[6]
*178 N2BEGb[7]
*179 N2END[0]
*180 N2END[1]
*181 N2END[2]
*182 N2END[3]
*183 N2END[4]
*184 N2END[5]
*185 N2END[6]
*186 N2END[7]
*187 N2MID[0]
*188 N2MID[1]
*189 N2MID[2]
*190 N2MID[3]
*191 N2MID[4]
*192 N2MID[5]
*193 N2MID[6]
*194 N2MID[7]
*195 N4BEG[0]
*196 N4BEG[10]
*197 N4BEG[11]
*198 N4BEG[12]
*199 N4BEG[13]
*200 N4BEG[14]
*201 N4BEG[15]
*202 N4BEG[1]
*203 N4BEG[2]
*204 N4BEG[3]
*205 N4BEG[4]
*206 N4BEG[5]
*207 N4BEG[6]
*208 N4BEG[7]
*209 N4BEG[8]
*210 N4BEG[9]
*211 N4END[0]
*212 N4END[10]
*213 N4END[11]
*214 N4END[12]
*215 N4END[13]
*216 N4END[14]
*217 N4END[15]
*218 N4END[1]
*219 N4END[2]
*220 N4END[3]
*221 N4END[4]
*222 N4END[5]
*223 N4END[6]
*224 N4END[7]
*225 N4END[8]
*226 N4END[9]
*227 RST_N_TT_PROJECT
*228 S1BEG[0]
*229 S1BEG[1]
*230 S1BEG[2]
*231 S1BEG[3]
*232 S1END[0]
*233 S1END[1]
*234 S1END[2]
*235 S1END[3]
*236 S2BEG[0]
*237 S2BEG[1]
*238 S2BEG[2]
*239 S2BEG[3]
*240 S2BEG[4]
*241 S2BEG[5]
*242 S2BEG[6]
*243 S2BEG[7]
*244 S2BEGb[0]
*245 S2BEGb[1]
*246 S2BEGb[2]
*247 S2BEGb[3]
*248 S2BEGb[4]
*249 S2BEGb[5]
*250 S2BEGb[6]
*251 S2BEGb[7]
*252 S2END[0]
*253 S2END[1]
*254 S2END[2]
*255 S2END[3]
*256 S2END[4]
*257 S2END[5]
*258 S2END[6]
*259 S2END[7]
*260 S2MID[0]
*261 S2MID[1]
*262 S2MID[2]
*263 S2MID[3]
*264 S2MID[4]
*265 S2MID[5]
*266 S2MID[6]
*267 S2MID[7]
*268 S4BEG[0]
*269 S4BEG[10]
*270 S4BEG[11]
*271 S4BEG[12]
*272 S4BEG[13]
*273 S4BEG[14]
*274 S4BEG[15]
*275 S4BEG[1]
*276 S4BEG[2]
*277 S4BEG[3]
*278 S4BEG[4]
*279 S4BEG[5]
*280 S4BEG[6]
*281 S4BEG[7]
*282 S4BEG[8]
*283 S4BEG[9]
*284 S4END[0]
*285 S4END[10]
*286 S4END[11]
*287 S4END[12]
*288 S4END[13]
*289 S4END[14]
*290 S4END[15]
*291 S4END[1]
*292 S4END[2]
*293 S4END[3]
*294 S4END[4]
*295 S4END[5]
*296 S4END[6]
*297 S4END[7]
*298 S4END[8]
*299 S4END[9]
*300 UIO_IN_TT_PROJECT0
*301 UIO_IN_TT_PROJECT1
*302 UIO_IN_TT_PROJECT2
*303 UIO_IN_TT_PROJECT3
*304 UIO_IN_TT_PROJECT4
*305 UIO_IN_TT_PROJECT5
*306 UIO_IN_TT_PROJECT6
*307 UIO_IN_TT_PROJECT7
*308 UIO_OE_TT_PROJECT0
*309 UIO_OE_TT_PROJECT1
*310 UIO_OE_TT_PROJECT2
*311 UIO_OE_TT_PROJECT3
*312 UIO_OE_TT_PROJECT4
*313 UIO_OE_TT_PROJECT5
*314 UIO_OE_TT_PROJECT6
*315 UIO_OE_TT_PROJECT7
*316 UIO_OUT_TT_PROJECT0
*317 UIO_OUT_TT_PROJECT1
*318 UIO_OUT_TT_PROJECT2
*319 UIO_OUT_TT_PROJECT3
*320 UIO_OUT_TT_PROJECT4
*321 UIO_OUT_TT_PROJECT5
*322 UIO_OUT_TT_PROJECT6
*323 UIO_OUT_TT_PROJECT7
*324 UI_IN_TT_PROJECT0
*325 UI_IN_TT_PROJECT1
*326 UI_IN_TT_PROJECT2
*327 UI_IN_TT_PROJECT3
*328 UI_IN_TT_PROJECT4
*329 UI_IN_TT_PROJECT5
*330 UI_IN_TT_PROJECT6
*331 UI_IN_TT_PROJECT7
*332 UO_OUT_TT_PROJECT0
*333 UO_OUT_TT_PROJECT1
*334 UO_OUT_TT_PROJECT2
*335 UO_OUT_TT_PROJECT3
*336 UO_OUT_TT_PROJECT4
*337 UO_OUT_TT_PROJECT5
*338 UO_OUT_TT_PROJECT6
*339 UO_OUT_TT_PROJECT7
*340 UserCLK
*341 UserCLKo
*344 W1END[0]
*345 W1END[1]
*346 W1END[2]
*347 W1END[3]
*348 W2END[0]
*349 W2END[1]
*350 W2END[2]
*351 W2END[3]
*352 W2END[4]
*353 W2END[5]
*354 W2END[6]
*355 W2END[7]
*356 W2MID[0]
*357 W2MID[1]
*358 W2MID[2]
*359 W2MID[3]
*360 W2MID[4]
*361 W2MID[5]
*362 W2MID[6]
*363 W2MID[7]
*364 W6END[0]
*365 W6END[10]
*366 W6END[11]
*367 W6END[1]
*368 W6END[2]
*369 W6END[3]
*370 W6END[4]
*371 W6END[5]
*372 W6END[6]
*373 W6END[7]
*374 W6END[8]
*375 W6END[9]
*376 WW4END[0]
*377 WW4END[10]
*378 WW4END[11]
*379 WW4END[12]
*380 WW4END[13]
*381 WW4END[14]
*382 WW4END[15]
*383 WW4END[1]
*384 WW4END[2]
*385 WW4END[3]
*386 WW4END[4]
*387 WW4END[5]
*388 WW4END[6]
*389 WW4END[7]
*390 WW4END[8]
*391 WW4END[9]
*392 Inst_W_TT_IF_ConfigMem\.Inst_frame0_bit0\.Q
*393 Inst_W_TT_IF_ConfigMem\.Inst_frame0_bit1\.Q
*394 Inst_W_TT_IF_ConfigMem\.Inst_frame0_bit10\.Q
*395 Inst_W_TT_IF_ConfigMem\.Inst_frame0_bit11\.Q
*396 Inst_W_TT_IF_ConfigMem\.Inst_frame0_bit12\.Q
*397 Inst_W_TT_IF_ConfigMem\.Inst_frame0_bit13\.Q
*398 Inst_W_TT_IF_ConfigMem\.Inst_frame0_bit14\.Q
*399 Inst_W_TT_IF_ConfigMem\.Inst_frame0_bit15\.Q
*400 Inst_W_TT_IF_ConfigMem\.Inst_frame0_bit16\.Q
*401 Inst_W_TT_IF_ConfigMem\.Inst_frame0_bit17\.Q
*402 Inst_W_TT_IF_ConfigMem\.Inst_frame0_bit18\.Q
*403 Inst_W_TT_IF_ConfigMem\.Inst_frame0_bit19\.Q
*404 Inst_W_TT_IF_ConfigMem\.Inst_frame0_bit2\.Q
*405 Inst_W_TT_IF_ConfigMem\.Inst_frame0_bit20\.Q
*406 Inst_W_TT_IF_ConfigMem\.Inst_frame0_bit21\.Q
*407 Inst_W_TT_IF_ConfigMem\.Inst_frame0_bit22\.Q
*408 Inst_W_TT_IF_ConfigMem\.Inst_frame0_bit23\.Q
*409 Inst_W_TT_IF_ConfigMem\.Inst_frame0_bit24\.Q
*410 Inst_W_TT_IF_ConfigMem\.Inst_frame0_bit25\.Q
*411 Inst_W_TT_IF_ConfigMem\.Inst_frame0_bit26\.Q
*412 Inst_W_TT_IF_ConfigMem\.Inst_frame0_bit27\.Q
*413 Inst_W_TT_IF_ConfigMem\.Inst_frame0_bit28\.Q
*414 Inst_W_TT_IF_ConfigMem\.Inst_frame0_bit29\.Q
*415 Inst_W_TT_IF_ConfigMem\.Inst_frame0_bit3\.Q
*416 Inst_W_TT_IF_ConfigMem\.Inst_frame0_bit30\.Q
*417 Inst_W_TT_IF_ConfigMem\.Inst_frame0_bit31\.Q
*418 Inst_W_TT_IF_ConfigMem\.Inst_frame0_bit4\.Q
*419 Inst_W_TT_IF_ConfigMem\.Inst_frame0_bit5\.Q
*420 Inst_W_TT_IF_ConfigMem\.Inst_frame0_bit6\.Q
*421 Inst_W_TT_IF_ConfigMem\.Inst_frame0_bit7\.Q
*422 Inst_W_TT_IF_ConfigMem\.Inst_frame0_bit8\.Q
*423 Inst_W_TT_IF_ConfigMem\.Inst_frame0_bit9\.Q
*424 Inst_W_TT_IF_ConfigMem\.Inst_frame1_bit0\.Q
*425 Inst_W_TT_IF_ConfigMem\.Inst_frame1_bit1\.Q
*426 Inst_W_TT_IF_ConfigMem\.Inst_frame1_bit10\.Q
*427 Inst_W_TT_IF_ConfigMem\.Inst_frame1_bit11\.Q
*428 Inst_W_TT_IF_ConfigMem\.Inst_frame1_bit12\.Q
*429 Inst_W_TT_IF_ConfigMem\.Inst_frame1_bit13\.Q
*430 Inst_W_TT_IF_ConfigMem\.Inst_frame1_bit14\.Q
*431 Inst_W_TT_IF_ConfigMem\.Inst_frame1_bit15\.Q
*432 Inst_W_TT_IF_ConfigMem\.Inst_frame1_bit16\.Q
*433 Inst_W_TT_IF_ConfigMem\.Inst_frame1_bit17\.Q
*434 Inst_W_TT_IF_ConfigMem\.Inst_frame1_bit18\.Q
*435 Inst_W_TT_IF_ConfigMem\.Inst_frame1_bit19\.Q
*436 Inst_W_TT_IF_ConfigMem\.Inst_frame1_bit2\.Q
*437 Inst_W_TT_IF_ConfigMem\.Inst_frame1_bit20\.Q
*438 Inst_W_TT_IF_ConfigMem\.Inst_frame1_bit21\.Q
*439 Inst_W_TT_IF_ConfigMem\.Inst_frame1_bit22\.Q
*440 Inst_W_TT_IF_ConfigMem\.Inst_frame1_bit23\.Q
*441 Inst_W_TT_IF_ConfigMem\.Inst_frame1_bit24\.Q
*442 Inst_W_TT_IF_ConfigMem\.Inst_frame1_bit25\.Q
*443 Inst_W_TT_IF_ConfigMem\.Inst_frame1_bit26\.Q
*444 Inst_W_TT_IF_ConfigMem\.Inst_frame1_bit27\.Q
*445 Inst_W_TT_IF_ConfigMem\.Inst_frame1_bit28\.Q
*446 Inst_W_TT_IF_ConfigMem\.Inst_frame1_bit29\.Q
*447 Inst_W_TT_IF_ConfigMem\.Inst_frame1_bit3\.Q
*448 Inst_W_TT_IF_ConfigMem\.Inst_frame1_bit30\.Q
*449 Inst_W_TT_IF_ConfigMem\.Inst_frame1_bit31\.Q
*450 Inst_W_TT_IF_ConfigMem\.Inst_frame1_bit4\.Q
*451 Inst_W_TT_IF_ConfigMem\.Inst_frame1_bit5\.Q
*452 Inst_W_TT_IF_ConfigMem\.Inst_frame1_bit6\.Q
*453 Inst_W_TT_IF_ConfigMem\.Inst_frame1_bit7\.Q
*454 Inst_W_TT_IF_ConfigMem\.Inst_frame1_bit8\.Q
*455 Inst_W_TT_IF_ConfigMem\.Inst_frame1_bit9\.Q
*456 Inst_W_TT_IF_ConfigMem\.Inst_frame2_bit0\.Q
*457 Inst_W_TT_IF_ConfigMem\.Inst_frame2_bit1\.Q
*458 Inst_W_TT_IF_ConfigMem\.Inst_frame2_bit10\.Q
*459 Inst_W_TT_IF_ConfigMem\.Inst_frame2_bit11\.Q
*460 Inst_W_TT_IF_ConfigMem\.Inst_frame2_bit12\.Q
*461 Inst_W_TT_IF_ConfigMem\.Inst_frame2_bit13\.Q
*462 Inst_W_TT_IF_ConfigMem\.Inst_frame2_bit14\.Q
*463 Inst_W_TT_IF_ConfigMem\.Inst_frame2_bit15\.Q
*464 Inst_W_TT_IF_ConfigMem\.Inst_frame2_bit16\.Q
*465 Inst_W_TT_IF_ConfigMem\.Inst_frame2_bit17\.Q
*466 Inst_W_TT_IF_ConfigMem\.Inst_frame2_bit18\.Q
*467 Inst_W_TT_IF_ConfigMem\.Inst_frame2_bit19\.Q
*468 Inst_W_TT_IF_ConfigMem\.Inst_frame2_bit2\.Q
*469 Inst_W_TT_IF_ConfigMem\.Inst_frame2_bit20\.Q
*470 Inst_W_TT_IF_ConfigMem\.Inst_frame2_bit21\.Q
*471 Inst_W_TT_IF_ConfigMem\.Inst_frame2_bit22\.Q
*472 Inst_W_TT_IF_ConfigMem\.Inst_frame2_bit23\.Q
*473 Inst_W_TT_IF_ConfigMem\.Inst_frame2_bit24\.Q
*474 Inst_W_TT_IF_ConfigMem\.Inst_frame2_bit25\.Q
*475 Inst_W_TT_IF_ConfigMem\.Inst_frame2_bit26\.Q
*476 Inst_W_TT_IF_ConfigMem\.Inst_frame2_bit27\.Q
*477 Inst_W_TT_IF_ConfigMem\.Inst_frame2_bit28\.Q
*478 Inst_W_TT_IF_ConfigMem\.Inst_frame2_bit29\.Q
*479 Inst_W_TT_IF_ConfigMem\.Inst_frame2_bit3\.Q
*480 Inst_W_TT_IF_ConfigMem\.Inst_frame2_bit30\.Q
*481 Inst_W_TT_IF_ConfigMem\.Inst_frame2_bit31\.Q
*482 Inst_W_TT_IF_ConfigMem\.Inst_frame2_bit4\.Q
*483 Inst_W_TT_IF_ConfigMem\.Inst_frame2_bit5\.Q
*484 Inst_W_TT_IF_ConfigMem\.Inst_frame2_bit6\.Q
*485 Inst_W_TT_IF_ConfigMem\.Inst_frame2_bit7\.Q
*486 Inst_W_TT_IF_ConfigMem\.Inst_frame2_bit8\.Q
*487 Inst_W_TT_IF_ConfigMem\.Inst_frame2_bit9\.Q
*488 Inst_W_TT_IF_ConfigMem\.Inst_frame3_bit0\.Q
*489 Inst_W_TT_IF_ConfigMem\.Inst_frame3_bit1\.Q
*490 Inst_W_TT_IF_ConfigMem\.Inst_frame3_bit10\.Q
*491 Inst_W_TT_IF_ConfigMem\.Inst_frame3_bit11\.Q
*492 Inst_W_TT_IF_ConfigMem\.Inst_frame3_bit12\.Q
*493 Inst_W_TT_IF_ConfigMem\.Inst_frame3_bit13\.Q
*494 Inst_W_TT_IF_ConfigMem\.Inst_frame3_bit14\.Q
*495 Inst_W_TT_IF_ConfigMem\.Inst_frame3_bit15\.Q
*496 Inst_W_TT_IF_ConfigMem\.Inst_frame3_bit16\.Q
*497 Inst_W_TT_IF_ConfigMem\.Inst_frame3_bit17\.Q
*498 Inst_W_TT_IF_ConfigMem\.Inst_frame3_bit18\.Q
*499 Inst_W_TT_IF_ConfigMem\.Inst_frame3_bit19\.Q
*500 Inst_W_TT_IF_ConfigMem\.Inst_frame3_bit2\.Q
*501 Inst_W_TT_IF_ConfigMem\.Inst_frame3_bit20\.Q
*502 Inst_W_TT_IF_ConfigMem\.Inst_frame3_bit21\.Q
*503 Inst_W_TT_IF_ConfigMem\.Inst_frame3_bit22\.Q
*504 Inst_W_TT_IF_ConfigMem\.Inst_frame3_bit23\.Q
*505 Inst_W_TT_IF_ConfigMem\.Inst_frame3_bit24\.Q
*506 Inst_W_TT_IF_ConfigMem\.Inst_frame3_bit25\.Q
*507 Inst_W_TT_IF_ConfigMem\.Inst_frame3_bit26\.Q
*508 Inst_W_TT_IF_ConfigMem\.Inst_frame3_bit27\.Q
*509 Inst_W_TT_IF_ConfigMem\.Inst_frame3_bit28\.Q
*510 Inst_W_TT_IF_ConfigMem\.Inst_frame3_bit29\.Q
*511 Inst_W_TT_IF_ConfigMem\.Inst_frame3_bit3\.Q
*512 Inst_W_TT_IF_ConfigMem\.Inst_frame3_bit30\.Q
*513 Inst_W_TT_IF_ConfigMem\.Inst_frame3_bit31\.Q
*514 Inst_W_TT_IF_ConfigMem\.Inst_frame3_bit4\.Q
*515 Inst_W_TT_IF_ConfigMem\.Inst_frame3_bit5\.Q
*516 Inst_W_TT_IF_ConfigMem\.Inst_frame3_bit6\.Q
*517 Inst_W_TT_IF_ConfigMem\.Inst_frame3_bit7\.Q
*518 Inst_W_TT_IF_ConfigMem\.Inst_frame3_bit8\.Q
*519 Inst_W_TT_IF_ConfigMem\.Inst_frame3_bit9\.Q
*520 Inst_W_TT_IF_ConfigMem\.Inst_frame4_bit0\.Q
*521 Inst_W_TT_IF_ConfigMem\.Inst_frame4_bit1\.Q
*522 Inst_W_TT_IF_ConfigMem\.Inst_frame4_bit10\.Q
*523 Inst_W_TT_IF_ConfigMem\.Inst_frame4_bit11\.Q
*524 Inst_W_TT_IF_ConfigMem\.Inst_frame4_bit12\.Q
*525 Inst_W_TT_IF_ConfigMem\.Inst_frame4_bit13\.Q
*526 Inst_W_TT_IF_ConfigMem\.Inst_frame4_bit14\.Q
*527 Inst_W_TT_IF_ConfigMem\.Inst_frame4_bit15\.Q
*528 Inst_W_TT_IF_ConfigMem\.Inst_frame4_bit16\.Q
*529 Inst_W_TT_IF_ConfigMem\.Inst_frame4_bit17\.Q
*530 Inst_W_TT_IF_ConfigMem\.Inst_frame4_bit18\.Q
*531 Inst_W_TT_IF_ConfigMem\.Inst_frame4_bit19\.Q
*532 Inst_W_TT_IF_ConfigMem\.Inst_frame4_bit2\.Q
*533 Inst_W_TT_IF_ConfigMem\.Inst_frame4_bit20\.Q
*534 Inst_W_TT_IF_ConfigMem\.Inst_frame4_bit21\.Q
*535 Inst_W_TT_IF_ConfigMem\.Inst_frame4_bit22\.Q
*536 Inst_W_TT_IF_ConfigMem\.Inst_frame4_bit23\.Q
*537 Inst_W_TT_IF_ConfigMem\.Inst_frame4_bit24\.Q
*538 Inst_W_TT_IF_ConfigMem\.Inst_frame4_bit25\.Q
*539 Inst_W_TT_IF_ConfigMem\.Inst_frame4_bit26\.Q
*540 Inst_W_TT_IF_ConfigMem\.Inst_frame4_bit27\.Q
*541 Inst_W_TT_IF_ConfigMem\.Inst_frame4_bit28\.Q
*542 Inst_W_TT_IF_ConfigMem\.Inst_frame4_bit29\.Q
*543 Inst_W_TT_IF_ConfigMem\.Inst_frame4_bit3\.Q
*544 Inst_W_TT_IF_ConfigMem\.Inst_frame4_bit30\.Q
*545 Inst_W_TT_IF_ConfigMem\.Inst_frame4_bit31\.Q
*546 Inst_W_TT_IF_ConfigMem\.Inst_frame4_bit4\.Q
*547 Inst_W_TT_IF_ConfigMem\.Inst_frame4_bit5\.Q
*548 Inst_W_TT_IF_ConfigMem\.Inst_frame4_bit6\.Q
*549 Inst_W_TT_IF_ConfigMem\.Inst_frame4_bit7\.Q
*550 Inst_W_TT_IF_ConfigMem\.Inst_frame4_bit8\.Q
*551 Inst_W_TT_IF_ConfigMem\.Inst_frame4_bit9\.Q
*552 Inst_W_TT_IF_ConfigMem\.Inst_frame5_bit0\.Q
*553 Inst_W_TT_IF_ConfigMem\.Inst_frame5_bit1\.Q
*554 Inst_W_TT_IF_ConfigMem\.Inst_frame5_bit10\.Q
*555 Inst_W_TT_IF_ConfigMem\.Inst_frame5_bit11\.Q
*556 Inst_W_TT_IF_ConfigMem\.Inst_frame5_bit12\.Q
*557 Inst_W_TT_IF_ConfigMem\.Inst_frame5_bit13\.Q
*558 Inst_W_TT_IF_ConfigMem\.Inst_frame5_bit14\.Q
*559 Inst_W_TT_IF_ConfigMem\.Inst_frame5_bit15\.Q
*560 Inst_W_TT_IF_ConfigMem\.Inst_frame5_bit16\.Q
*561 Inst_W_TT_IF_ConfigMem\.Inst_frame5_bit17\.Q
*562 Inst_W_TT_IF_ConfigMem\.Inst_frame5_bit18\.Q
*563 Inst_W_TT_IF_ConfigMem\.Inst_frame5_bit19\.Q
*564 Inst_W_TT_IF_ConfigMem\.Inst_frame5_bit2\.Q
*565 Inst_W_TT_IF_ConfigMem\.Inst_frame5_bit20\.Q
*566 Inst_W_TT_IF_ConfigMem\.Inst_frame5_bit21\.Q
*567 Inst_W_TT_IF_ConfigMem\.Inst_frame5_bit22\.Q
*568 Inst_W_TT_IF_ConfigMem\.Inst_frame5_bit23\.Q
*569 Inst_W_TT_IF_ConfigMem\.Inst_frame5_bit24\.Q
*570 Inst_W_TT_IF_ConfigMem\.Inst_frame5_bit25\.Q
*571 Inst_W_TT_IF_ConfigMem\.Inst_frame5_bit26\.Q
*572 Inst_W_TT_IF_ConfigMem\.Inst_frame5_bit27\.Q
*573 Inst_W_TT_IF_ConfigMem\.Inst_frame5_bit28\.Q
*574 Inst_W_TT_IF_ConfigMem\.Inst_frame5_bit29\.Q
*575 Inst_W_TT_IF_ConfigMem\.Inst_frame5_bit3\.Q
*576 Inst_W_TT_IF_ConfigMem\.Inst_frame5_bit30\.Q
*577 Inst_W_TT_IF_ConfigMem\.Inst_frame5_bit31\.Q
*578 Inst_W_TT_IF_ConfigMem\.Inst_frame5_bit4\.Q
*579 Inst_W_TT_IF_ConfigMem\.Inst_frame5_bit5\.Q
*580 Inst_W_TT_IF_ConfigMem\.Inst_frame5_bit6\.Q
*581 Inst_W_TT_IF_ConfigMem\.Inst_frame5_bit7\.Q
*582 Inst_W_TT_IF_ConfigMem\.Inst_frame5_bit8\.Q
*583 Inst_W_TT_IF_ConfigMem\.Inst_frame5_bit9\.Q
*584 Inst_W_TT_IF_ConfigMem\.Inst_frame6_bit0\.Q
*585 Inst_W_TT_IF_ConfigMem\.Inst_frame6_bit1\.Q
*586 Inst_W_TT_IF_ConfigMem\.Inst_frame6_bit10\.Q
*587 Inst_W_TT_IF_ConfigMem\.Inst_frame6_bit11\.Q
*588 Inst_W_TT_IF_ConfigMem\.Inst_frame6_bit12\.Q
*589 Inst_W_TT_IF_ConfigMem\.Inst_frame6_bit13\.Q
*590 Inst_W_TT_IF_ConfigMem\.Inst_frame6_bit14\.Q
*591 Inst_W_TT_IF_ConfigMem\.Inst_frame6_bit15\.Q
*592 Inst_W_TT_IF_ConfigMem\.Inst_frame6_bit16\.Q
*593 Inst_W_TT_IF_ConfigMem\.Inst_frame6_bit17\.Q
*594 Inst_W_TT_IF_ConfigMem\.Inst_frame6_bit18\.Q
*595 Inst_W_TT_IF_ConfigMem\.Inst_frame6_bit19\.Q
*596 Inst_W_TT_IF_ConfigMem\.Inst_frame6_bit2\.Q
*597 Inst_W_TT_IF_ConfigMem\.Inst_frame6_bit20\.Q
*598 Inst_W_TT_IF_ConfigMem\.Inst_frame6_bit21\.Q
*599 Inst_W_TT_IF_ConfigMem\.Inst_frame6_bit22\.Q
*600 Inst_W_TT_IF_ConfigMem\.Inst_frame6_bit23\.Q
*601 Inst_W_TT_IF_ConfigMem\.Inst_frame6_bit24\.Q
*602 Inst_W_TT_IF_ConfigMem\.Inst_frame6_bit25\.Q
*603 Inst_W_TT_IF_ConfigMem\.Inst_frame6_bit26\.Q
*604 Inst_W_TT_IF_ConfigMem\.Inst_frame6_bit27\.Q
*605 Inst_W_TT_IF_ConfigMem\.Inst_frame6_bit28\.Q
*606 Inst_W_TT_IF_ConfigMem\.Inst_frame6_bit29\.Q
*607 Inst_W_TT_IF_ConfigMem\.Inst_frame6_bit3\.Q
*608 Inst_W_TT_IF_ConfigMem\.Inst_frame6_bit30\.Q
*609 Inst_W_TT_IF_ConfigMem\.Inst_frame6_bit31\.Q
*610 Inst_W_TT_IF_ConfigMem\.Inst_frame6_bit4\.Q
*611 Inst_W_TT_IF_ConfigMem\.Inst_frame6_bit5\.Q
*612 Inst_W_TT_IF_ConfigMem\.Inst_frame6_bit6\.Q
*613 Inst_W_TT_IF_ConfigMem\.Inst_frame6_bit7\.Q
*614 Inst_W_TT_IF_ConfigMem\.Inst_frame6_bit8\.Q
*615 Inst_W_TT_IF_ConfigMem\.Inst_frame6_bit9\.Q
*616 Inst_W_TT_IF_ConfigMem\.Inst_frame7_bit0\.Q
*617 Inst_W_TT_IF_ConfigMem\.Inst_frame7_bit1\.Q
*618 Inst_W_TT_IF_ConfigMem\.Inst_frame7_bit10\.Q
*619 Inst_W_TT_IF_ConfigMem\.Inst_frame7_bit11\.Q
*620 Inst_W_TT_IF_ConfigMem\.Inst_frame7_bit12\.Q
*621 Inst_W_TT_IF_ConfigMem\.Inst_frame7_bit13\.Q
*622 Inst_W_TT_IF_ConfigMem\.Inst_frame7_bit14\.Q
*623 Inst_W_TT_IF_ConfigMem\.Inst_frame7_bit15\.Q
*624 Inst_W_TT_IF_ConfigMem\.Inst_frame7_bit16\.Q
*625 Inst_W_TT_IF_ConfigMem\.Inst_frame7_bit17\.Q
*626 Inst_W_TT_IF_ConfigMem\.Inst_frame7_bit18\.Q
*627 Inst_W_TT_IF_ConfigMem\.Inst_frame7_bit19\.Q
*628 Inst_W_TT_IF_ConfigMem\.Inst_frame7_bit2\.Q
*629 Inst_W_TT_IF_ConfigMem\.Inst_frame7_bit20\.Q
*630 Inst_W_TT_IF_ConfigMem\.Inst_frame7_bit21\.Q
*631 Inst_W_TT_IF_ConfigMem\.Inst_frame7_bit22\.Q
*632 Inst_W_TT_IF_ConfigMem\.Inst_frame7_bit23\.Q
*633 Inst_W_TT_IF_ConfigMem\.Inst_frame7_bit24\.Q
*634 Inst_W_TT_IF_ConfigMem\.Inst_frame7_bit25\.Q
*635 Inst_W_TT_IF_ConfigMem\.Inst_frame7_bit26\.Q
*636 Inst_W_TT_IF_ConfigMem\.Inst_frame7_bit27\.Q
*637 Inst_W_TT_IF_ConfigMem\.Inst_frame7_bit28\.Q
*638 Inst_W_TT_IF_ConfigMem\.Inst_frame7_bit29\.Q
*639 Inst_W_TT_IF_ConfigMem\.Inst_frame7_bit3\.Q
*640 Inst_W_TT_IF_ConfigMem\.Inst_frame7_bit30\.Q
*641 Inst_W_TT_IF_ConfigMem\.Inst_frame7_bit31\.Q
*642 Inst_W_TT_IF_ConfigMem\.Inst_frame7_bit4\.Q
*643 Inst_W_TT_IF_ConfigMem\.Inst_frame7_bit5\.Q
*644 Inst_W_TT_IF_ConfigMem\.Inst_frame7_bit6\.Q
*645 Inst_W_TT_IF_ConfigMem\.Inst_frame7_bit7\.Q
*646 Inst_W_TT_IF_ConfigMem\.Inst_frame7_bit8\.Q
*647 Inst_W_TT_IF_ConfigMem\.Inst_frame7_bit9\.Q
*648 Inst_W_TT_IF_ConfigMem\.Inst_frame8_bit10\.Q
*649 Inst_W_TT_IF_ConfigMem\.Inst_frame8_bit11\.Q
*650 Inst_W_TT_IF_ConfigMem\.Inst_frame8_bit12\.Q
*651 Inst_W_TT_IF_ConfigMem\.Inst_frame8_bit13\.Q
*652 Inst_W_TT_IF_ConfigMem\.Inst_frame8_bit14\.Q
*653 Inst_W_TT_IF_ConfigMem\.Inst_frame8_bit15\.Q
*654 Inst_W_TT_IF_ConfigMem\.Inst_frame8_bit16\.Q
*655 Inst_W_TT_IF_ConfigMem\.Inst_frame8_bit17\.Q
*656 Inst_W_TT_IF_ConfigMem\.Inst_frame8_bit18\.Q
*657 Inst_W_TT_IF_ConfigMem\.Inst_frame8_bit19\.Q
*658 Inst_W_TT_IF_ConfigMem\.Inst_frame8_bit20\.Q
*659 Inst_W_TT_IF_ConfigMem\.Inst_frame8_bit21\.Q
*660 Inst_W_TT_IF_ConfigMem\.Inst_frame8_bit22\.Q
*661 Inst_W_TT_IF_ConfigMem\.Inst_frame8_bit23\.Q
*662 Inst_W_TT_IF_ConfigMem\.Inst_frame8_bit24\.Q
*663 Inst_W_TT_IF_ConfigMem\.Inst_frame8_bit25\.Q
*664 Inst_W_TT_IF_ConfigMem\.Inst_frame8_bit26\.Q
*665 Inst_W_TT_IF_ConfigMem\.Inst_frame8_bit27\.Q
*666 Inst_W_TT_IF_ConfigMem\.Inst_frame8_bit28\.Q
*667 Inst_W_TT_IF_ConfigMem\.Inst_frame8_bit29\.Q
*668 Inst_W_TT_IF_ConfigMem\.Inst_frame8_bit30\.Q
*669 Inst_W_TT_IF_ConfigMem\.Inst_frame8_bit31\.Q
*670 Inst_W_TT_IF_switch_matrix\.E1BEG0
*671 Inst_W_TT_IF_switch_matrix\.E1BEG1
*672 Inst_W_TT_IF_switch_matrix\.E1BEG2
*673 Inst_W_TT_IF_switch_matrix\.E1BEG3
*674 Inst_W_TT_IF_switch_matrix\.E2BEG0
*675 Inst_W_TT_IF_switch_matrix\.E2BEG1
*676 Inst_W_TT_IF_switch_matrix\.E2BEG2
*677 Inst_W_TT_IF_switch_matrix\.E2BEG3
*678 Inst_W_TT_IF_switch_matrix\.E2BEG4
*679 Inst_W_TT_IF_switch_matrix\.E2BEG5
*680 Inst_W_TT_IF_switch_matrix\.E2BEG6
*681 Inst_W_TT_IF_switch_matrix\.E2BEG7
*682 Inst_W_TT_IF_switch_matrix\.E2BEGb0
*683 Inst_W_TT_IF_switch_matrix\.E2BEGb1
*684 Inst_W_TT_IF_switch_matrix\.E2BEGb2
*685 Inst_W_TT_IF_switch_matrix\.E2BEGb3
*686 Inst_W_TT_IF_switch_matrix\.E2BEGb4
*687 Inst_W_TT_IF_switch_matrix\.E2BEGb5
*688 Inst_W_TT_IF_switch_matrix\.E2BEGb6
*689 Inst_W_TT_IF_switch_matrix\.E2BEGb7
*690 Inst_W_TT_IF_switch_matrix\.E6BEG0
*691 Inst_W_TT_IF_switch_matrix\.E6BEG1
*692 Inst_W_TT_IF_switch_matrix\.E6BEG10
*693 Inst_W_TT_IF_switch_matrix\.E6BEG11
*694 Inst_W_TT_IF_switch_matrix\.E6BEG2
*695 Inst_W_TT_IF_switch_matrix\.E6BEG3
*696 Inst_W_TT_IF_switch_matrix\.E6BEG4
*697 Inst_W_TT_IF_switch_matrix\.E6BEG5
*698 Inst_W_TT_IF_switch_matrix\.E6BEG6
*699 Inst_W_TT_IF_switch_matrix\.E6BEG7
*700 Inst_W_TT_IF_switch_matrix\.E6BEG8
*701 Inst_W_TT_IF_switch_matrix\.E6BEG9
*702 Inst_W_TT_IF_switch_matrix\.EE4BEG0
*703 Inst_W_TT_IF_switch_matrix\.EE4BEG1
*704 Inst_W_TT_IF_switch_matrix\.EE4BEG10
*705 Inst_W_TT_IF_switch_matrix\.EE4BEG11
*706 Inst_W_TT_IF_switch_matrix\.EE4BEG12
*707 Inst_W_TT_IF_switch_matrix\.EE4BEG13
*708 Inst_W_TT_IF_switch_matrix\.EE4BEG14
*709 Inst_W_TT_IF_switch_matrix\.EE4BEG15
*710 Inst_W_TT_IF_switch_matrix\.EE4BEG2
*711 Inst_W_TT_IF_switch_matrix\.EE4BEG3
*712 Inst_W_TT_IF_switch_matrix\.EE4BEG4
*713 Inst_W_TT_IF_switch_matrix\.EE4BEG5
*714 Inst_W_TT_IF_switch_matrix\.EE4BEG6
*715 Inst_W_TT_IF_switch_matrix\.EE4BEG7
*716 Inst_W_TT_IF_switch_matrix\.EE4BEG8
*717 Inst_W_TT_IF_switch_matrix\.EE4BEG9
*718 Inst_W_TT_IF_switch_matrix\.N1BEG0
*719 Inst_W_TT_IF_switch_matrix\.N1BEG1
*720 Inst_W_TT_IF_switch_matrix\.N1BEG2
*721 Inst_W_TT_IF_switch_matrix\.N1BEG3
*722 Inst_W_TT_IF_switch_matrix\.N2BEG0
*723 Inst_W_TT_IF_switch_matrix\.N2BEG1
*724 Inst_W_TT_IF_switch_matrix\.N2BEG2
*725 Inst_W_TT_IF_switch_matrix\.N2BEG3
*726 Inst_W_TT_IF_switch_matrix\.N2BEG4
*727 Inst_W_TT_IF_switch_matrix\.N2BEG5
*728 Inst_W_TT_IF_switch_matrix\.N2BEG6
*729 Inst_W_TT_IF_switch_matrix\.N2BEG7
*730 Inst_W_TT_IF_switch_matrix\.N4BEG0
*731 Inst_W_TT_IF_switch_matrix\.N4BEG1
*732 Inst_W_TT_IF_switch_matrix\.N4BEG2
*733 Inst_W_TT_IF_switch_matrix\.N4BEG3
*734 Inst_W_TT_IF_switch_matrix\.S1BEG0
*735 Inst_W_TT_IF_switch_matrix\.S1BEG1
*736 Inst_W_TT_IF_switch_matrix\.S1BEG2
*737 Inst_W_TT_IF_switch_matrix\.S1BEG3
*738 Inst_W_TT_IF_switch_matrix\.S2BEG0
*739 Inst_W_TT_IF_switch_matrix\.S2BEG1
*740 Inst_W_TT_IF_switch_matrix\.S2BEG2
*741 Inst_W_TT_IF_switch_matrix\.S2BEG3
*742 Inst_W_TT_IF_switch_matrix\.S2BEG4
*743 Inst_W_TT_IF_switch_matrix\.S2BEG5
*744 Inst_W_TT_IF_switch_matrix\.S2BEG6
*745 Inst_W_TT_IF_switch_matrix\.S2BEG7
*746 Inst_W_TT_IF_switch_matrix\.S4BEG0
*747 Inst_W_TT_IF_switch_matrix\.S4BEG1
*748 Inst_W_TT_IF_switch_matrix\.S4BEG2
*749 Inst_W_TT_IF_switch_matrix\.S4BEG3
*750 _000_
*751 _001_
*752 _002_
*753 _003_
*754 _004_
*755 _005_
*756 _006_
*757 _007_
*758 _008_
*759 _009_
*760 _010_
*761 _011_
*762 _012_
*763 _013_
*764 _014_
*765 _015_
*766 _016_
*767 _017_
*768 _018_
*769 _019_
*770 _020_
*771 _021_
*772 _022_
*773 _023_
*774 _024_
*775 _025_
*776 _026_
*777 _027_
*778 _028_
*779 _029_
*780 _030_
*781 _031_
*782 _032_
*783 _033_
*784 _034_
*785 _035_
*786 _036_
*787 _037_
*788 _038_
*789 _039_
*790 _040_
*791 _041_
*792 _042_
*793 _043_
*794 _044_
*795 _045_
*796 _046_
*797 _047_
*798 _048_
*799 _049_
*800 _050_
*801 _051_
*802 _052_
*803 _053_
*804 _054_
*805 _055_
*806 _056_
*807 _057_
*808 _058_
*809 _059_
*810 _060_
*811 _061_
*812 _062_
*813 _063_
*814 _064_
*815 _065_
*816 _066_
*817 _067_
*818 _068_
*819 _069_
*820 _070_
*821 _071_
*822 _072_
*823 _073_
*824 _074_
*825 _075_
*826 _076_
*827 _077_
*828 _078_
*829 _079_
*830 _080_
*831 _081_
*832 _082_
*833 _083_
*834 _084_
*835 _085_
*836 _086_
*837 _087_
*838 _088_
*839 _089_
*840 _090_
*841 _091_
*842 _092_
*843 _093_
*844 _094_
*845 _095_
*846 _096_
*847 _097_
*848 _098_
*849 _099_
*850 _100_
*851 _101_
*852 _102_
*853 _103_
*854 _104_
*855 _105_
*856 _106_
*857 _107_
*858 _108_
*859 _109_
*860 _110_
*861 _111_
*862 _112_
*863 _113_
*864 _114_
*865 _115_
*866 _116_
*867 _117_
*868 _118_
*869 _119_
*870 _120_
*871 _121_
*872 _122_
*873 _123_
*874 _124_
*875 _125_
*876 _126_
*877 _127_
*878 _128_
*879 _129_
*880 _130_
*881 _131_
*882 _132_
*883 _133_
*884 _134_
*885 _135_
*886 _136_
*887 _137_
*888 _138_
*889 _139_
*890 _140_
*891 _141_
*892 _142_
*893 _143_
*894 _144_
*895 _145_
*896 _146_
*897 _147_
*898 _148_
*899 _149_
*900 _150_
*901 _151_
*902 _152_
*903 _153_
*904 _154_
*905 _155_
*906 _156_
*907 _157_
*908 _158_
*909 _159_
*910 _160_
*911 _161_
*912 _162_
*913 _163_
*914 _164_
*915 _165_
*916 _166_
*917 _167_
*918 _168_
*919 _169_
*920 _170_
*921 _171_
*922 _172_
*923 _173_
*924 _174_
*925 _175_
*926 _176_
*927 _177_
*928 _178_
*929 _179_
*930 _180_
*931 _181_
*932 _182_
*933 _183_
*934 _184_
*935 _185_
*936 _186_
*937 _187_
*938 _188_
*939 _189_
*940 _190_
*941 _191_
*942 _192_
*943 _193_
*944 _194_
*945 _195_
*946 _196_
*947 _197_
*948 _198_
*949 _199_
*950 _200_
*951 _201_
*952 _202_
*953 _203_
*954 _204_
*955 _205_
*956 _206_
*957 _207_
*958 _208_
*959 clknet_0_UserCLK
*960 clknet_1_0__leaf_UserCLK
*961 clknet_1_1__leaf_UserCLK
*962 ANTENNA_1
*963 ANTENNA_10
*964 ANTENNA_11
*965 ANTENNA_12
*966 ANTENNA_13
*967 ANTENNA_14
*968 ANTENNA_15
*969 ANTENNA_16
*970 ANTENNA_17
*971 ANTENNA_18
*972 ANTENNA_19
*973 ANTENNA_2
*974 ANTENNA_20
*975 ANTENNA_21
*976 ANTENNA_22
*977 ANTENNA_23
*978 ANTENNA_24
*979 ANTENNA_25
*980 ANTENNA_26
*981 ANTENNA_27
*982 ANTENNA_28
*983 ANTENNA_29
*984 ANTENNA_3
*985 ANTENNA_4
*986 ANTENNA_5
*987 ANTENNA_6
*988 ANTENNA_7
*989 ANTENNA_8
*990 ANTENNA_9
*991 FILLER_0_0
*992 FILLER_0_103
*993 FILLER_0_11
*994 FILLER_0_112
*995 FILLER_0_119
*996 FILLER_0_123
*997 FILLER_0_146
*998 FILLER_0_174
*999 FILLER_0_193
*1000 FILLER_0_60
*1001 FILLER_0_7
*1002 FILLER_0_86
*1003 FILLER_10_112
*1004 FILLER_10_119
*1005 FILLER_10_140
*1006 FILLER_10_154
*1007 FILLER_10_17
*1008 FILLER_10_199
*1009 FILLER_10_39
*1010 FILLER_10_46
*1011 FILLER_10_64
*1012 FILLER_10_71
*1013 FILLER_10_73
*1014 FILLER_11_0
*1015 FILLER_11_100
*1016 FILLER_11_162
*1017 FILLER_11_2
*1018 FILLER_11_20
*1019 FILLER_11_28
*1020 FILLER_11_85
*1021 FILLER_11_87
*1022 FILLER_12_103
*1023 FILLER_12_105
*1024 FILLER_12_123
*1025 FILLER_12_163
*1026 FILLER_12_167
*1027 FILLER_12_196
*1028 FILLER_12_38
*1029 FILLER_12_45
*1030 FILLER_12_52
*1031 FILLER_12_59
*1032 FILLER_12_63
*1033 FILLER_13_114
*1034 FILLER_13_116
*1035 FILLER_13_132
*1036 FILLER_13_139
*1037 FILLER_13_146
*1038 FILLER_13_153
*1039 FILLER_13_160
*1040 FILLER_13_167
*1041 FILLER_13_17
*1042 FILLER_13_171
*1043 FILLER_13_198
*1044 FILLER_13_29
*1045 FILLER_13_43
*1046 FILLER_13_47
*1047 FILLER_13_65
*1048 FILLER_13_67
*1049 FILLER_13_94
*1050 FILLER_13_96
*1051 FILLER_14_141
*1052 FILLER_14_143
*1053 FILLER_14_161
*1054 FILLER_14_17
*1055 FILLER_14_185
*1056 FILLER_14_199
*1057 FILLER_14_29
*1058 FILLER_14_36
*1059 FILLER_14_43
*1060 FILLER_15_0
*1061 FILLER_15_117
*1062 FILLER_15_128
*1063 FILLER_15_130
*1064 FILLER_15_148
*1065 FILLER_15_196
*1066 FILLER_15_66
*1067 FILLER_15_7
*1068 FILLER_15_94
*1069 FILLER_15_98
*1070 FILLER_16_0
*1071 FILLER_16_139
*1072 FILLER_16_171
*1073 FILLER_16_195
*1074 FILLER_16_199
*1075 FILLER_16_35
*1076 FILLER_16_42
*1077 FILLER_16_7
*1078 FILLER_17_0
*1079 FILLER_17_101
*1080 FILLER_17_119
*1081 FILLER_17_14
*1082 FILLER_17_170
*1083 FILLER_17_199
*1084 FILLER_17_36
*1085 FILLER_17_43
*1086 FILLER_17_47
*1087 FILLER_17_69
*1088 FILLER_17_7
*1089 FILLER_17_73
*1090 FILLER_17_90
*1091 FILLER_17_97
*1092 FILLER_18_116
*1093 FILLER_18_118
*1094 FILLER_18_146
*1095 FILLER_18_164
*1096 FILLER_18_32
*1097 FILLER_18_50
*1098 FILLER_18_69
*1099 FILLER_18_91
*1100 FILLER_18_98
*1101 FILLER_19_137
*1102 FILLER_19_17
*1103 FILLER_19_176
*1104 FILLER_19_178
*1105 FILLER_19_90
*1106 FILLER_19_97
*1107 FILLER_1_0
*1108 FILLER_1_145
*1109 FILLER_1_178
*1110 FILLER_1_196
*1111 FILLER_1_65
*1112 FILLER_1_82
*1113 FILLER_1_87
*1114 FILLER_1_94
*1115 FILLER_20_0
*1116 FILLER_20_103
*1117 FILLER_20_110
*1118 FILLER_20_128
*1119 FILLER_20_135
*1120 FILLER_20_142
*1121 FILLER_20_146
*1122 FILLER_20_175
*1123 FILLER_20_19
*1124 FILLER_20_199
*1125 FILLER_20_67
*1126 FILLER_21_129
*1127 FILLER_21_152
*1128 FILLER_21_17
*1129 FILLER_21_41
*1130 FILLER_21_64
*1131 FILLER_21_82
*1132 FILLER_21_89
*1133 FILLER_22_0
*1134 FILLER_22_103
*1135 FILLER_22_110
*1136 FILLER_22_117
*1137 FILLER_22_124
*1138 FILLER_22_128
*1139 FILLER_22_159
*1140 FILLER_22_166
*1141 FILLER_22_184
*1142 FILLER_22_196
*1143 FILLER_22_31
*1144 FILLER_22_38
*1145 FILLER_22_59
*1146 FILLER_22_7
*1147 FILLER_23_0
*1148 FILLER_23_11
*1149 FILLER_23_153
*1150 FILLER_23_33
*1151 FILLER_23_40
*1152 FILLER_23_42
*1153 FILLER_23_67
*1154 FILLER_23_7
*1155 FILLER_23_71
*1156 FILLER_24_104
*1157 FILLER_24_130
*1158 FILLER_24_17
*1159 FILLER_24_184