*SPEF "ieee 1481-1999"
*DESIGN "SE_term"
*DATE "14:26:27 Wednesday July 30, 2025"
*VENDOR "The OpenROAD Project"
*PROGRAM "OpenROAD"
*VERSION "341650e72dad0dc8571822ff8c5d9c5e365327f7"
*DESIGN_FLOW "NAME_SCOPE LOCAL" "PIN_CAP NONE"
*DIVIDER /
*DELIMITER :
*BUS_DELIMITER []
*T_UNIT 1 NS
*C_UNIT 1 PF
*R_UNIT 1 OHM
*L_UNIT 1 HENRY

*NAME_MAP
*1 FrameData[0]
*2 FrameData[10]
*3 FrameData[11]
*4 FrameData[12]
*5 FrameData[13]
*6 FrameData[14]
*7 FrameData[15]
*8 FrameData[16]
*9 FrameData[17]
*10 FrameData[18]
*11 FrameData[19]
*12 FrameData[1]
*13 FrameData[20]
*14 FrameData[21]
*15 FrameData[22]
*16 FrameData[23]
*17 FrameData[24]
*18 FrameData[25]
*19 FrameData[26]
*20 FrameData[27]
*21 FrameData[28]
*22 FrameData[29]
*23 FrameData[2]
*24 FrameData[30]
*25 FrameData[31]
*26 FrameData[3]
*27 FrameData[4]
*28 FrameData[5]
*29 FrameData[6]
*30 FrameData[7]
*31 FrameData[8]
*32 FrameData[9]
*33 FrameData_O[0]
*34 FrameData_O[10]
*35 FrameData_O[11]
*36 FrameData_O[12]
*37 FrameData_O[13]
*38 FrameData_O[14]
*39 FrameData_O[15]
*40 FrameData_O[16]
*41 FrameData_O[17]
*42 FrameData_O[18]
*43 FrameData_O[19]
*44 FrameData_O[1]
*45 FrameData_O[20]
*46 FrameData_O[21]
*47 FrameData_O[22]
*48 FrameData_O[23]
*49 FrameData_O[24]
*50 FrameData_O[25]
*51 FrameData_O[26]
*52 FrameData_O[27]
*53 FrameData_O[28]
*54 FrameData_O[29]
*55 FrameData_O[2]
*56 FrameData_O[30]
*57 FrameData_O[31]
*58 FrameData_O[3]
*59 FrameData_O[4]
*60 FrameData_O[5]
*61 FrameData_O[6]
*62 FrameData_O[7]
*63 FrameData_O[8]
*64 FrameData_O[9]
*65 FrameStrobe[0]
*66 FrameStrobe[10]
*67 FrameStrobe[11]
*68 FrameStrobe[12]
*69 FrameStrobe[13]
*70 FrameStrobe[14]
*71 FrameStrobe[15]
*72 FrameStrobe[16]
*73 FrameStrobe[17]
*74 FrameStrobe[18]
*75 FrameStrobe[19]
*76 FrameStrobe[1]
*77 FrameStrobe[2]
*78 FrameStrobe[3]
*79 FrameStrobe[4]
*80 FrameStrobe[5]
*81 FrameStrobe[6]
*82 FrameStrobe[7]
*83 FrameStrobe[8]
*84 FrameStrobe[9]
*85 FrameStrobe_O[0]
*86 FrameStrobe_O[10]
*87 FrameStrobe_O[11]
*88 FrameStrobe_O[12]
*89 FrameStrobe_O[13]
*90 FrameStrobe_O[14]
*91 FrameStrobe_O[15]
*92 FrameStrobe_O[16]
*93 FrameStrobe_O[17]
*94 FrameStrobe_O[18]
*95 FrameStrobe_O[19]
*96 FrameStrobe_O[1]
*97 FrameStrobe_O[2]
*98 FrameStrobe_O[3]
*99 FrameStrobe_O[4]
*100 FrameStrobe_O[5]
*101 FrameStrobe_O[6]
*102 FrameStrobe_O[7]
*103 FrameStrobe_O[8]
*104 FrameStrobe_O[9]
*105 N1BEG[0]
*106 N1BEG[1]
*107 N1BEG[2]
*108 N1BEG[3]
*109 N2BEG[0]
*110 N2BEG[1]
*111 N2BEG[2]
*112 N2BEG[3]
*113 N2BEG[4]
*114 N2BEG[5]
*115 N2BEG[6]
*116 N2BEG[7]
*117 N2BEGb[0]
*118 N2BEGb[1]
*119 N2BEGb[2]
*120 N2BEGb[3]
*121 N2BEGb[4]
*122 N2BEGb[5]
*123 N2BEGb[6]
*124 N2BEGb[7]
*125 N4BEG[0]
*126 N4BEG[10]
*127 N4BEG[11]
*128 N4BEG[12]
*129 N4BEG[13]
*130 N4BEG[14]
*131 N4BEG[15]
*132 N4BEG[1]
*133 N4BEG[2]
*134 N4BEG[3]
*135 N4BEG[4]
*136 N4BEG[5]
*137 N4BEG[6]
*138 N4BEG[7]
*139 N4BEG[8]
*140 N4BEG[9]
*141 S1END[0]
*142 S1END[1]
*143 S1END[2]
*144 S1END[3]
*145 S2END[0]
*146 S2END[1]
*147 S2END[2]
*148 S2END[3]
*149 S2END[4]
*150 S2END[5]
*151 S2END[6]
*152 S2END[7]
*153 S2MID[0]
*154 S2MID[1]
*155 S2MID[2]
*156 S2MID[3]
*157 S2MID[4]
*158 S2MID[5]
*159 S2MID[6]
*160 S2MID[7]
*161 S4END[0]
*162 S4END[10]
*163 S4END[11]
*164 S4END[12]
*165 S4END[13]
*166 S4END[14]
*167 S4END[15]
*168 S4END[1]
*169 S4END[2]
*170 S4END[3]
*171 S4END[4]
*172 S4END[5]
*173 S4END[6]
*174 S4END[7]
*175 S4END[8]
*176 S4END[9]
*177 UserCLK
*178 UserCLKo
*179 FILLER_0_0
*180 FILLER_0_105
*181 FILLER_0_112
*182 FILLER_0_119
*183 FILLER_0_126
*184 FILLER_0_133
*185 FILLER_0_14
*186 FILLER_0_140
*187 FILLER_0_147
*188 FILLER_0_154
*189 FILLER_0_161
*190 FILLER_0_168
*191 FILLER_0_175
*192 FILLER_0_182
*193 FILLER_0_189
*194 FILLER_0_196
*195 FILLER_0_21
*196 FILLER_0_28
*197 FILLER_0_35
*198 FILLER_0_42
*199 FILLER_0_49
*200 FILLER_0_56
*201 FILLER_0_63
*202 FILLER_0_7
*203 FILLER_0_70
*204 FILLER_0_77
*205 FILLER_0_84
*206 FILLER_0_91
*207 FILLER_0_98
*208 FILLER_10_0
*209 FILLER_10_114
*210 FILLER_10_121
*211 FILLER_10_128
*212 FILLER_10_135
*213 FILLER_10_144
*214 FILLER_10_150
*215 FILLER_10_154
*216 FILLER_10_163
*217 FILLER_10_169
*218 FILLER_10_171
*219 FILLER_10_176
*220 FILLER_10_18
*221 FILLER_10_195
*222 FILLER_10_199
*223 FILLER_10_25
*224 FILLER_10_32
*225 FILLER_10_4
*226 FILLER_10_45
*227 FILLER_10_50
*228 FILLER_10_55
*229 FILLER_10_59
*230 FILLER_10_69
*231 FILLER_10_75
*232 FILLER_10_82
*233 FILLER_10_89
*234 FILLER_10_91
*235 FILLER_10_96
*236 FILLER_11_0
*237 FILLER_11_105
*238 FILLER_11_112
*239 FILLER_11_119
*240 FILLER_11_126
*241 FILLER_11_133
*242 FILLER_11_14
*243 FILLER_11_140
*244 FILLER_11_147
*245 FILLER_11_154
*246 FILLER_11_161
*247 FILLER_11_168
*248 FILLER_11_175
*249 FILLER_11_182
*250 FILLER_11_186
*251 FILLER_11_191
*252 FILLER_11_198
*253 FILLER_11_21
*254 FILLER_11_28
*255 FILLER_11_35
*256 FILLER_11_42
*257 FILLER_11_49
*258 FILLER_11_56
*259 FILLER_11_63
*260 FILLER_11_7
*261 FILLER_11_70
*262 FILLER_11_77
*263 FILLER_11_84
*264 FILLER_11_91
*265 FILLER_11_98
*266 FILLER_1_0
*267 FILLER_1_101
*268 FILLER_1_108
*269 FILLER_1_110
*270 FILLER_1_115
*271 FILLER_1_122
*272 FILLER_1_127
*273 FILLER_1_134
*274 FILLER_1_136
*275 FILLER_1_141
*276 FILLER_1_149
*277 FILLER_1_15
*278 FILLER_1_155
*279 FILLER_1_160
*280 FILLER_1_167
*281 FILLER_1_177
*282 FILLER_1_184
*283 FILLER_1_19
*284 FILLER_1_198
*285 FILLER_1_2
*286 FILLER_1_25
*287 FILLER_1_27
*288 FILLER_1_40
*289 FILLER_1_44
*290 FILLER_1_58
*291 FILLER_1_65
*292 FILLER_1_72
*293 FILLER_1_78
*294 FILLER_1_85
*295 FILLER_1_93
*296 FILLER_2_0
*297 FILLER_2_105
*298 FILLER_2_112
*299 FILLER_2_119
*300 FILLER_2_126
*301 FILLER_2_133
*302 FILLER_2_137
*303 FILLER_2_14
*304 FILLER_2_142
*305 FILLER_2_149
*306 FILLER_2_156
*307 FILLER_2_163
*308 FILLER_2_170
*309 FILLER_2_177
*310 FILLER_2_184
*311 FILLER_2_191
*312 FILLER_2_198
*313 FILLER_2_21
*314 FILLER_2_28
*315 FILLER_2_35
*316 FILLER_2_42
*317 FILLER_2_49
*318 FILLER_2_56
*319 FILLER_2_63
*320 FILLER_2_7
*321 FILLER_2_70
*322 FILLER_2_77
*323 FILLER_2_84
*324 FILLER_2_91
*325 FILLER_2_98
*326 FILLER_3_0
*327 FILLER_3_105
*328 FILLER_3_112
*329 FILLER_3_119
*330 FILLER_3_126
*331 FILLER_3_133
*332 FILLER_3_14
*333 FILLER_3_140
*334 FILLER_3_147
*335 FILLER_3_154
*336 FILLER_3_161
*337 FILLER_3_168
*338 FILLER_3_175
*339 FILLER_3_182
*340 FILLER_3_189
*341 FILLER_3_196
*342 FILLER_3_21
*343 FILLER_3_28
*344 FILLER_3_35
*345 FILLER_3_42
*346 FILLER_3_49
*347 FILLER_3_56
*348 FILLER_3_63
*349 FILLER_3_7
*350 FILLER_3_70
*351 FILLER_3_77
*352 FILLER_3_84
*353 FILLER_3_9
*354 FILLER_3_91
*355 FILLER_3_98
*356 FILLER_4_0
*357 FILLER_4_100
*358 FILLER_4_107
*359 FILLER_4_114
*360 FILLER_4_121
*361 FILLER_4_126
*362 FILLER_4_133
*363 FILLER_4_140
*364 FILLER_4_147
*365 FILLER_4_154
*366 FILLER_4_161
*367 FILLER_4_168
*368 FILLER_4_175
*369 FILLER_4_182
*370 FILLER_4_19
*371 FILLER_4_194
*372 FILLER_4_198
*373 FILLER_4_26
*374 FILLER_4_33
*375 FILLER_4_40
*376 FILLER_4_47
*377 FILLER_4_54
*378 FILLER_4_61
*379 FILLER_4_68
*380 FILLER_4_75
*381 FILLER_4_82
*382 FILLER_4_93
*383 FILLER_5_0
*384 FILLER_5_104
*385 FILLER_5_111
*386 FILLER_5_118
*387 FILLER_5_125
*388 FILLER_5_132
*389 FILLER_5_139
*390 FILLER_5_146
*391 FILLER_5_15
*392 FILLER_5_153
*393 FILLER_5_160
*394 FILLER_5_167
*395 FILLER_5_174
*396 FILLER_5_181
*397 FILLER_5_188
*398 FILLER_5_195
*399 FILLER_5_199
*400 FILLER_5_22
*401 FILLER_5_29
*402 FILLER_5_36
*403 FILLER_5_43
*404 FILLER_5_50
*405 FILLER_5_57
*406 FILLER_5_64
*407 FILLER_5_7
*408 FILLER_5_71
*409 FILLER_5_78
*410 FILLER_5_85
*411 FILLER_5_90
*412 FILLER_5_97
*413 FILLER_6_0
*414 FILLER_6_105
*415 FILLER_6_112
*416 FILLER_6_118
*417 FILLER_6_125
*418 FILLER_6_132
*419 FILLER_6_139
*420 FILLER_6_14
*421 FILLER_6_146
*422 FILLER_6_153
*423 FILLER_6_160
*424 FILLER_6_166
*425 FILLER_6_173
*426 FILLER_6_184
*427 FILLER_6_188
*428 FILLER_6_193
*429 FILLER_6_21
*430 FILLER_6_28
*431 FILLER_6_35
*432 FILLER_6_42
*433 FILLER_6_49
*434 FILLER_6_56
*435 FILLER_6_63
*436 FILLER_6_7
*437 FILLER_6_70
*438 FILLER_6_77
*439 FILLER_6_84
*440 FILLER_6_91
*441 FILLER_6_98
*442 FILLER_7_0
*443 FILLER_7_103
*444 FILLER_7_110
*445 FILLER_7_117
*446 FILLER_7_12
*447 FILLER_7_124
*448 FILLER_7_131
*449 FILLER_7_138
*450 FILLER_7_145
*451 FILLER_7_152
*452 FILLER_7_156
*453 FILLER_7_161
*454 FILLER_7_168
*455 FILLER_7_176
*456 FILLER_7_183
*457 FILLER_7_19
*458 FILLER_7_193
*459 FILLER_7_26
*460 FILLER_7_33
*461 FILLER_7_40
*462 FILLER_7_47
*463 FILLER_7_54
*464 FILLER_7_61
*465 FILLER_7_68
*466 FILLER_7_7
*467 FILLER_7_75
*468 FILLER_7_82
*469 FILLER_7_89
*470 FILLER_7_96
*471 FILLER_8_0
*472 FILLER_8_102
*473 FILLER_8_109
*474 FILLER_8_11
*475 FILLER_8_116
*476 FILLER_8_123
*477 FILLER_8_130
*478 FILLER_8_137
*479 FILLER_8_144
*480 FILLER_8_151
*481 FILLER_8_158
*482 FILLER_8_165
*483 FILLER_8_172
*484 FILLER_8_179
*485 FILLER_8_18
*486 FILLER_8_186
*487 FILLER_8_193
*488 FILLER_8_25
*489 FILLER_8_32
*490 FILLER_8_39
*491 FILLER_8_46
*492 FILLER_8_53
*493 FILLER_8_60
*494 FILLER_8_67
*495 FILLER_8_74
*496 FILLER_8_81
*497 FILLER_8_88
*498 FILLER_8_95
*499 FILLER_9_0
*500 FILLER_9_102
*501 FILLER_9_11
*502 FILLER_9_110
*503 FILLER_9_117
*504 FILLER_9_119
*505 FILLER_9_124
*506 FILLER_9_129
*507 FILLER_9_13
*508 FILLER_9_134
*509 FILLER_9_141
*510 FILLER_9_148
*511 FILLER_9_155
*512 FILLER_9_160
*513 FILLER_9_168
*514 FILLER_9_175
*515 FILLER_9_18
*516 FILLER_9_182
*517 FILLER_9_186
*518 FILLER_9_191
*519 FILLER_9_198
*520 FILLER_9_26
*521 FILLER_9_34
*522 FILLER_9_41
*523 FILLER_9_48
*524 FILLER_9_55
*525 FILLER_9_59
*526 FILLER_9_65
*527 FILLER_9_79
*528 FILLER_9_86
*529 FILLER_9_95
*530 _00_
*531 _01_
*532 _02_
*533 _03_
*534 _04_
*535 _05_
*536 _06_
*537 _07_
*538 _08_
*539 _09_
*540 _10_
*541 _11_
*542 _12_
*543 _13_
*544 _14_
*545 _15_
*546 _16_
*547 _17_
*548 _18_
*549 _19_
*550 _20_
*551 _21_
*552 _22_
*553 _23_
*554 _24_
*555 _25_
*556 _26_
*557 _27_
*558 _28_
*559 _29_
*560 _30_
*561 _31_
*562 _32_
*563 _33_
*564 _34_
*565 _35_
*566 _36_
*567 _37_
*568 _38_
*569 _39_
*570 _40_
*571 _41_
*572 _42_
*573 _43_
*574 _44_
*575 _45_
*576 _46_
*577 _47_
*578 _48_
*579 _49_
*580 _50_
*581 _51_
*582 _52_
*583 _53_
*584 _54_
*585 _55_
*586 _56_
*587 _57_
*588 _58_
*589 _59_
*590 _60_
*591 _61_
*592 _62_
*593 _63_
*594 _64_
*595 _65_
*596 _66_
*597 _67_
*598 _68_
*599 _69_
*600 _70_
*601 _71_
*602 _72_
*603 _73_
*604 _74_
*605 _75_
*606 _76_
*607 _77_
*608 _78_
*609 _79_
*610 _80_
*611 _81_
*612 _82_
*613 _83_
*614 _84_
*615 _85_
*616 _86_
*617 _87_
*618 _88_

*PORTS
FrameData[0] I
FrameData[10] I
FrameData[11] I
FrameData[12] I
FrameData[13] I
FrameData[14] I
FrameData[15] I
FrameData[16] I
FrameData[17] I
FrameData[18] I
FrameData[19] I
FrameData[1] I
FrameData[20] I
FrameData[21] I
FrameData[22] I
FrameData[23] I
FrameData[24] I
FrameData[25] I
FrameData[26] I
FrameData[27] I
FrameData[28] I
FrameData[29] I
FrameData[2] I
FrameData[30] I
FrameData[31] I
FrameData[3] I
FrameData[4] I
FrameData[5] I
FrameData[6] I
FrameData[7] I
FrameData[8] I
FrameData[9] I
FrameData_O[0] O
FrameData_O[10] O
FrameData_O[11] O
FrameData_O[12] O
FrameData_O[13] O
FrameData_O[14] O
FrameData_O[15] O
FrameData_O[16] O
FrameData_O[17] O
FrameData_O[18] O
FrameData_O[19] O
FrameData_O[1] O
FrameData_O[20] O
FrameData_O[21] O
FrameData_O[22] O
FrameData_O[23] O
FrameData_O[24] O
FrameData_O[25] O
FrameData_O[26] O
FrameData_O[27] O
FrameData_O[28] O
FrameData_O[29] O
FrameData_O[2] O
FrameData_O[30] O
FrameData_O[31] O
FrameData_O[3] O
FrameData_O[4] O
FrameData_O[5] O
FrameData_O[6] O
FrameData_O[7] O
FrameData_O[8] O
FrameData_O[9] O
FrameStrobe[0] I
FrameStrobe[10] I
FrameStrobe[11] I
FrameStrobe[12] I
FrameStrobe[13] I
FrameStrobe[14] I
FrameStrobe[15] I
FrameStrobe[16] I
FrameStrobe[17] I
FrameStrobe[18] I
FrameStrobe[19] I
FrameStrobe[1] I
FrameStrobe[2] I
FrameStrobe[3] I
FrameStrobe[4] I
FrameStrobe[5] I
FrameStrobe[6] I
FrameStrobe[7] I
FrameStrobe[8] I
FrameStrobe[9] I
FrameStrobe_O[0] O
FrameStrobe_O[10] O
FrameStrobe_O[11] O
FrameStrobe_O[12] O
FrameStrobe_O[13] O
FrameStrobe_O[14] O
FrameStrobe_O[15] O
FrameStrobe_O[16] O
FrameStrobe_O[17] O
FrameStrobe_O[18] O
FrameStrobe_O[19] O
FrameStrobe_O[1] O
FrameStrobe_O[2] O
FrameStrobe_O[3] O
FrameStrobe_O[4] O
FrameStrobe_O[5] O
FrameStrobe_O[6] O
FrameStrobe_O[7] O
FrameStrobe_O[8] O
FrameStrobe_O[9] O
N1BEG[0] O
N1BEG[1] O
N1BEG[2] O
N1BEG[3] O
N2BEG[0] O
N2BEG[1] O
N2BEG[2] O
N2BEG[3] O
N2BEG[4] O
N2BEG[5] O
N2BEG[6] O
N2BEG[7] O
N2BEGb[0] O
N2BEGb[1] O
N2BEGb[2] O
N2BEGb[3] O
N2BEGb[4] O
N2BEGb[5] O
N2BEGb[6] O
N2BEGb[7] O
N4BEG[0] O
N4BEG[10] O
N4BEG[11] O
N4BEG[12] O
N4BEG[13] O
N4BEG[14] O
N4BEG[15] O
N4BEG[1] O
N4BEG[2] O
N4BEG[3] O
N4BEG[4] O
N4BEG[5] O
N4BEG[6] O
N4BEG[7] O
N4BEG[8] O
N4BEG[9] O
S1END[0] I
S1END[1] I
S1END[2] I
S1END[3] I
S2END[0] I
S2END[1] I
S2END[2] I
S2END[3] I
S2END[4] I
S2END[5] I
S2END[6] I
S2END[7] I
S2MID[0] I
S2MID[1] I
S2MID[2] I
S2MID[3] I
S2MID[4] I
S2MID[5] I
S2MID[6] I
S2MID[7] I
S4END[0] I
S4END[10] I
S4END[11] I
S4END[12] I
S4END[13] I
S4END[14] I
S4END[15] I
S4END[1] I
S4END[2] I
S4END[3] I
S4END[4] I
S4END[5] I
S4END[6] I
S4END[7] I
S4END[8] I
S4END[9] I
UserCLK I
UserCLKo O

*D_NET *1 0.00211682
*CONN
*P FrameData[0] I
*I *530:A I *D sg13g2_buf_1
*CAP
1 FrameData[0] 0.000905499
2 *530:A 0.000905499
3 *530:A FrameData_O[1] 0
4 *530:A *531:A 0
5 *530:A *534:A 0
6 *530:A *23:9 0
7 *530:A *44:8 0
8 *530:A *65:11 0.000305818
9 *530:A *177:9 0
*RES
1 FrameData[0] *530:A 49.2712 
*END

*D_NET *2 0.00679945
*CONN
*P FrameData[10] I
*I *540:A I *D sg13g2_buf_1
*CAP
1 FrameData[10] 0.00246092
2 *540:A 0
3 *2:9 0.00246092
4 *2:9 *539:A 0
5 *2:9 *3:7 0
6 *2:9 *3:9 0
7 *2:9 *31:9 0
8 *2:9 *37:14 0
9 *2:9 *64:10 0
10 *2:9 *85:20 0.00157164
11 *2:9 *102:16 0.000305966
*RES
1 FrameData[10] *2:9 47.2126 
2 *2:9 *540:A 20 
*END

*D_NET *3 0.0222728
*CONN
*P FrameData[11] I
*I *541:A I *D sg13g2_buf_1
*CAP
1 FrameData[11] 0.000795313
2 *541:A 7.87389e-05
3 *3:9 0.00190923
4 *3:7 0.0026258
5 *541:A *95:10 0
6 *3:7 *4:5 0
7 *3:7 *38:8 0
8 *3:9 FrameData_O[10] 0
9 *3:9 FrameData_O[12] 0
10 *3:9 *37:14 0.00840878
11 *3:9 *38:10 0.0084549
12 *2:9 *3:7 0
13 *2:9 *3:9 0
*RES
1 FrameData[11] *3:7 8.6417 
2 *3:7 *3:9 42.127 
3 *3:9 *541:A 40.7519 
*END

*D_NET *4 0.0157344
*CONN
*P FrameData[12] I
*I *542:A I *D sg13g2_buf_1
*CAP
1 FrameData[12] 0.00144811
2 *542:A 6.2853e-05
3 *4:5 0.00151096
4 *4:5 *543:A 0
5 *4:5 *9:13 0.00691697
6 *4:5 *38:10 0.0057955
7 *3:7 *4:5 0
*RES
1 FrameData[12] *4:5 33.0733 
2 *4:5 *542:A 40.6695 
*END

*D_NET *5 0.00145495
*CONN
*P FrameData[13] I
*I *543:A I *D sg13g2_buf_1
*CAP
1 FrameData[13] 0.000727476
2 *543:A 0.000727476
3 *543:A FrameData_O[15] 0
4 *543:A *544:A 0
5 *543:A *9:13 0
6 *4:5 *543:A 0
*RES
1 FrameData[13] *543:A 47.622 
*END

*D_NET *6 0.00140739
*CONN
*P FrameData[14] I
*I *544:A I *D sg13g2_buf_1
*CAP
1 FrameData[14] 0.000703693
2 *544:A 0.000703693
3 *544:A *545:A 0
4 *543:A *544:A 0
*RES
1 FrameData[14] *544:A 47.5134 
*END

*D_NET *7 0.00122113
*CONN
*P FrameData[15] I
*I *545:A I *D sg13g2_buf_1
*CAP
1 FrameData[15] 0.000610564
2 *545:A 0.000610564
3 *545:A *8:5 0
4 *545:A *39:8 0
5 *544:A *545:A 0
*RES
1 FrameData[15] *545:A 46.6332 
*END

*D_NET *8 0.0062612
*CONN
*P FrameData[16] I
*I *546:A I *D sg13g2_buf_1
*CAP
1 FrameData[16] 0.00304912
2 *546:A 8.14798e-05
3 *8:5 0.0031306
4 *8:5 FrameData_O[15] 0
5 *8:5 *548:A 0
6 *8:5 *9:11 0
7 *8:5 *11:13 0
8 *8:5 *15:15 0
9 *8:5 *15:17 0
10 *8:5 *98:12 0
11 *545:A *8:5 0
*RES
1 FrameData[16] *8:5 31.3429 
2 *8:5 *546:A 40.7519 
*END

*D_NET *9 0.0184629
*CONN
*P FrameData[17] I
*I *547:A I *D sg13g2_buf_1
*CAP
1 FrameData[17] 0.000508755
2 *547:A 0
3 *9:13 0.00360153
4 *9:11 0.00411029
5 *9:11 *548:A 0
6 *9:13 FrameData_O[12] 0.00332533
7 *9:13 FrameData_O[13] 0
8 *9:13 *38:10 0
9 *9:13 *97:12 0
10 *543:A *9:13 0
11 *4:5 *9:13 0.00691697
12 *8:5 *9:11 0
*RES
1 FrameData[17] *9:11 45.3972 
2 *9:11 *9:13 48.0598 
3 *9:13 *547:A 40 
*END

*D_NET *10 0.00114907
*CONN
*P FrameData[18] I
*I *548:A I *D sg13g2_buf_1
*CAP
1 FrameData[18] 0.000574535
2 *548:A 0.000574535
3 *548:A *11:11 0
4 *548:A *11:13 0
5 *548:A *13:9 0
6 *548:A *17:13 0
7 *8:5 *548:A 0
8 *9:11 *548:A 0
*RES
1 FrameData[18] *548:A 45.8916 
*END

*D_NET *11 0.015464
*CONN
*P FrameData[19] I
*I *549:A I *D sg13g2_buf_1
*CAP
1 FrameData[19] 0.00044286
2 *549:A 8.04319e-05
3 *11:13 0.00469465
4 *11:11 0.00505708
5 *549:A FrameData_O[17] 4.77083e-05
6 *549:A *47:8 0
7 *549:A *95:10 0
8 *11:11 *13:9 0
9 *11:13 FrameData_O[16] 0
10 *11:13 FrameData_O[18] 0
11 *11:13 *15:15 0
12 *11:13 *15:17 0
13 *11:13 *16:13 0.00514128
14 *11:13 *17:13 0
15 *548:A *11:11 0
16 *548:A *11:13 0
17 *8:5 *11:13 0
*RES
1 FrameData[19] *11:11 44.5629 
2 *11:11 *11:13 46.8238 
3 *11:13 *549:A 40.7519 
*END

*D_NET *12 0.0015464
*CONN
*P FrameData[1] I
*I *531:A I *D sg13g2_buf_1
*CAP
1 FrameData[1] 0.0007732
2 *531:A 0.0007732
3 *531:A *23:9 0
4 *531:A *44:8 0
5 *531:A *177:9 0
6 *530:A *531:A 0
*RES
1 FrameData[1] *531:A 47.6838 
*END

*D_NET *13 0.0102641
*CONN
*P FrameData[20] I
*I *550:A I *D sg13g2_buf_1
*CAP
1 FrameData[20] 0.0048057
2 *550:A 9.92815e-05
3 *13:9 0.00490498
4 *550:A FrameData_O[20] 0
5 *550:A *47:8 0
6 *13:9 FrameData_O[18] 0
7 *13:9 *14:5 0
8 *13:9 *17:13 0
9 *13:9 *69:13 0
10 *13:9 *143:9 0.000454168
11 *13:9 *159:17 0
12 *548:A *13:9 0
13 *11:11 *13:9 0
*RES
1 FrameData[20] *13:9 49.3164 
2 *13:9 *550:A 40.9682 
*END

*D_NET *14 0.0167556
*CONN
*P FrameData[21] I
*I *551:A I *D sg13g2_buf_1
*CAP
1 FrameData[21] 0.00369537
2 *551:A 0.000227786
3 *14:5 0.00392316
4 *551:A FrameData_O[20] 0
5 *551:A FrameData_O[21] 0
6 *551:A *47:8 0
7 *14:5 FrameData_O[23] 0
8 *14:5 FrameStrobe_O[6] 0
9 *14:5 N4BEG[4] 0
10 *14:5 N4BEG[7] 0
11 *14:5 *15:9 0
12 *14:5 *90:14 0
13 *14:5 *99:12 0
14 *14:5 *133:12 0
15 *14:5 *142:9 0.0039753
16 *14:5 *159:17 0
17 *14:5 *160:15 0.00493403
18 *13:9 *14:5 0
*RES
1 FrameData[21] *14:5 49.8829 
2 *14:5 *551:A 42.0497 
*END

*D_NET *15 0.0154615
*CONN
*P FrameData[22] I
*I *552:A I *D sg13g2_buf_1
*CAP
1 FrameData[22] 0.00153765
2 *552:A 0
3 *15:17 0.00269005
4 *15:15 0.00324934
5 *15:9 0.00209694
6 *15:9 *16:9 0
7 *15:9 *160:15 0
8 *15:17 FrameData_O[16] 0
9 *15:17 *16:13 0
10 *15:17 *98:12 0.00588751
11 *8:5 *15:15 0
12 *8:5 *15:17 0
13 *11:13 *15:15 0
14 *11:13 *15:17 0
15 *14:5 *15:9 0
*RES
1 FrameData[22] *15:9 35.7487 
2 *15:9 *15:15 25.2736 
3 *15:15 *15:17 31.5901 
4 *15:17 *552:A 40 
*END

*D_NET *16 0.0149432
*CONN
*P FrameData[23] I
*I *553:A I *D sg13g2_buf_1
*CAP
1 FrameData[23] 0.00232889
2 *553:A 4.96871e-05
3 *16:13 0.00206056
4 *16:9 0.00433977
5 *553:A *577:A 8.00842e-05
6 *16:9 *17:11 0
7 *16:9 *18:13 0.000761373
8 *16:9 *133:12 0
9 *16:9 *141:21 0.00018156
10 *16:9 *149:19 0
11 *16:9 *160:15 0
12 *11:13 *16:13 0.00514128
13 *15:9 *16:9 0
14 *15:17 *16:13 0
*RES
1 FrameData[23] *16:9 44.5552 
2 *16:9 *16:13 43.8342 
3 *16:13 *553:A 40.5356 
*END

*D_NET *17 0.0106271
*CONN
*P FrameData[24] I
*I *554:A I *D sg13g2_buf_1
*CAP
1 FrameData[24] 0.000820579
2 *554:A 0
3 *17:13 0.00449295
4 *17:11 0.00531353
5 *17:11 *18:13 0
6 *17:11 *24:9 0
7 *17:13 FrameData_O[18] 0
8 *17:13 *69:13 0
9 *17:13 *100:14 0
10 *17:13 *134:12 0
11 *548:A *17:13 0
12 *11:13 *17:13 0
13 *13:9 *17:13 0
14 *16:9 *17:11 0
*RES
1 FrameData[24] *17:11 48.549 
2 *17:11 *17:13 41.8798 
3 *17:13 *554:A 40 
*END

*D_NET *18 0.00919833
*CONN
*P FrameData[25] I
*I *555:A I *D sg13g2_buf_1
*CAP
1 FrameData[25] 0.00241282
2 *555:A 0
3 *18:19 0.000426216
4 *18:13 0.00283903
5 *18:13 *19:13 0
6 *18:13 *105:8 0
7 *18:13 *108:8 0.000235142
8 *18:13 *112:8 0.000556974
9 *18:13 *113:8 0
10 *18:13 *141:21 0
11 *18:13 *149:19 0.000235272
12 *18:13 *155:13 0.0017315
13 *18:19 FrameData_O[15] 0
14 *18:19 *97:12 0
15 *16:9 *18:13 0.000761373
16 *17:11 *18:13 0
*RES
1 FrameData[25] *18:13 49.3344 
2 *18:13 *18:19 44.7998 
3 *18:19 *555:A 20 
*END

*D_NET *19 0.011034
*CONN
*P FrameData[26] I
*I *556:A I *D sg13g2_buf_1
*CAP
1 FrameData[26] 0.00187886
2 *556:A 0
3 *19:25 0.000243085
4 *19:17 0.00233349
5 *19:13 0.00396927
6 *19:13 *20:11 0
7 *19:13 *21:9 0
8 *19:13 *109:16 0
9 *19:13 *114:8 0
10 *19:13 *117:10 0
11 *19:13 *118:10 0
12 *19:13 *125:24 0.000766204
13 *19:13 *141:13 0.00166431
14 *19:17 *125:18 0
15 *19:25 *86:20 0.000178805
16 *18:13 *19:13 0
*RES
1 FrameData[26] *19:13 40.9296 
2 *19:13 *19:17 47.5422 
3 *19:17 *19:25 42.8016 
4 *19:25 *556:A 40 
*END

*D_NET *20 0.0172997
*CONN
*P FrameData[27] I
*I *557:A I *D sg13g2_buf_1
*CAP
1 FrameData[27] 0.000645876
2 *557:A 0.000202147
3 *20:21 0.000696305
4 *20:13 0.00334998
5 *20:11 0.00350169
6 *557:A FrameStrobe_O[14] 0
7 *557:A *56:10 0
8 *20:11 *21:9 0
9 *20:11 *22:11 0
10 *20:11 *25:11 0
11 *20:13 *22:13 0.00676365
12 *20:13 *25:13 0
13 *20:21 FrameData_O[24] 0.000714669
14 *20:21 *22:25 0
15 *20:21 *24:25 0.00113876
16 *20:21 *25:19 0
17 *20:21 *86:12 0.000286604
18 *19:13 *20:11 0
*RES
1 FrameData[27] *20:11 46.2315 
2 *20:11 *20:13 43.363 
3 *20:13 *20:21 47.7765 
4 *20:21 *557:A 41.8334 
*END

*D_NET *21 0.00982263
*CONN
*P FrameData[28] I
*I *558:A I *D sg13g2_buf_1
*CAP
1 FrameData[28] 0.00141233
2 *558:A 0
3 *21:17 0
4 *21:13 0.00325016
5 *21:11 0.00325016
6 *21:9 0.00141233
7 *21:9 N2BEG[7] 0
8 *21:9 *22:11 0
9 *21:9 *24:9 0
10 *21:9 *141:13 0
11 *21:9 *144:9 0
12 *21:9 *157:17 0.000497653
13 *21:13 *125:18 0
14 *19:13 *21:9 0
15 *20:11 *21:9 0
*RES
1 FrameData[28] *21:9 35.0998 
2 *21:9 *21:11 20 
3 *21:11 *21:13 35.4526 
4 *21:13 *21:17 40 
5 *21:17 *558:A 40 
*END

*D_NET *22 0.0270563
*CONN
*P FrameData[29] I
*I *559:A I *D sg13g2_buf_1
*CAP
1 FrameData[29] 0.00072777
2 *559:A 0
3 *22:25 0.0013149
4 *22:19 0.00157005
5 *22:13 0.00153012
6 *22:11 0.00200275
7 *22:11 *24:9 0
8 *22:11 *25:11 0.000955891
9 *22:13 *24:13 0.00644414
10 *22:13 *25:13 0
11 *22:19 *24:19 0.000273099
12 *22:25 FrameData_O[24] 0.000926883
13 *22:25 FrameData_O[25] 0
14 *22:25 *24:25 0
15 *22:25 *50:18 0
16 *22:25 *56:10 0.000208068
17 *22:25 *86:12 0.00240914
18 *22:25 *88:14 0.00192984
19 *22:25 *95:10 0
20 *20:11 *22:11 0
21 *20:13 *22:13 0.00676365
22 *20:21 *22:25 0
23 *21:9 *22:11 0
*RES
1 FrameData[29] *22:11 48.4872 
2 *22:11 *22:13 31.2502 
3 *22:13 *22:19 42.6986 
4 *22:19 *22:25 39.055 
5 *22:25 *559:A 20 
*END

*D_NET *23 0.00316493
*CONN
*P FrameData[2] I
*I *532:A I *D sg13g2_buf_1
*CAP
1 FrameData[2] 0.00158247
2 *532:A 0
3 *23:9 0.00158247
4 *23:9 FrameData_O[1] 0
5 *23:9 *26:9 0
6 *23:9 *55:12 0
7 *23:9 *65:11 0
8 *23:9 *76:13 0
9 *23:9 *77:13 0
10 *530:A *23:9 0
11 *531:A *23:9 0
*RES
1 FrameData[2] *23:9 34.9762 
2 *23:9 *532:A 20 
*END

*D_NET *24 0.0232474
*CONN
*P FrameData[30] I
*I *560:A I *D sg13g2_buf_1
*CAP
1 FrameData[30] 0.000902363
2 *560:A 0
3 *24:25 0.00159601
4 *24:19 0.00176386
5 *24:13 0.00131749
6 *24:9 0.002052
7 *24:9 *25:11 0
8 *24:13 *25:13 0.0064449
9 *24:25 FrameData_O[23] 0
10 *24:25 *86:12 0
11 *24:25 *89:8 0
12 *24:25 *103:16 0.000653338
13 *24:25 *175:9 0.000661471
14 *17:11 *24:9 0
15 *20:21 *24:25 0.00113876
16 *21:9 *24:9 0
17 *22:11 *24:9 0
18 *22:13 *24:13 0.00644414
19 *22:19 *24:19 0.000273099
20 *22:25 *24:25 0
*RES
1 FrameData[30] *24:9 30.3721 
2 *24:9 *24:13 49.767 
3 *24:13 *24:19 41.8334 
4 *24:19 *24:25 37.2319 
5 *24:25 *560:A 20 
*END

*D_NET *25 0.0180013
*CONN
*P FrameData[31] I
*I *561:A I *D sg13g2_buf_1
*CAP
1 FrameData[31] 0.000871389
2 *561:A 0.000469589
3 *25:19 0.000989733
4 *25:13 0.00339379
5 *25:11 0.00374503
6 *561:A *92:10 0.00113097
7 *25:19 *86:20 0
8 *20:11 *25:11 0
9 *20:13 *25:13 0
10 *20:21 *25:19 0
11 *22:11 *25:11 0.000955891
12 *22:13 *25:13 0
13 *24:9 *25:11 0
14 *24:13 *25:13 0.0064449
*RES
1 FrameData[31] *25:11 49.5378 
2 *25:11 *25:13 42.127 
3 *25:13 *25:19 45.2942 
4 *25:19 *561:A 46.0358 
*END

*D_NET *26 0.00504084
*CONN
*P FrameData[3] I
*I *533:A I *D sg13g2_buf_1
*CAP
1 FrameData[3] 0.00252042
2 *533:A 0
3 *26:9 0.00252042
4 *26:9 FrameData_O[2] 0
5 *26:9 FrameData_O[4] 0
6 *26:9 *534:A 0
7 *26:9 *33:8 0
8 *26:9 *55:12 0
9 *26:9 *58:8 0
10 *26:9 *65:11 0
11 *26:9 *76:13 0
12 *26:9 *77:13 0
13 *26:9 *82:11 0
14 *23:9 *26:9 0
*RES
1 FrameData[3] *26:9 43.5046 
2 *26:9 *533:A 20 
*END

*D_NET *27 0.00138693
*CONN
*P FrameData[4] I
*I *534:A I *D sg13g2_buf_1
*CAP
1 FrameData[4] 0.000693463
2 *534:A 0.000693463
3 *534:A *28:7 0
4 *534:A *33:8 0
5 *534:A *59:8 0
6 *530:A *534:A 0
7 *26:9 *534:A 0
*RES
1 FrameData[4] *534:A 47.0658 
*END

*D_NET *28 0.0149794
*CONN
*P FrameData[5] I
*I *535:A I *D sg13g2_buf_1
*CAP
1 FrameData[5] 0.00291002
2 *535:A 0
3 *28:11 0.00107203
4 *28:7 0.00398205
5 *28:7 FrameData_O[4] 0
6 *28:7 FrameData_O[8] 0
7 *28:7 *29:9 0
8 *28:7 *33:8 0.000821812
9 *28:7 *61:14 0
10 *28:7 *68:11 0.000502704
11 *28:7 *82:11 0.000609685
12 *28:7 *84:11 0.000716578
13 *28:7 *85:10 0
14 *28:7 *96:12 0.00311595
15 *28:7 *96:20 0
16 *28:7 *177:9 0.00124856
17 *28:11 FrameData_O[8] 0
18 *28:11 *61:14 0
19 *28:11 *72:9 0
20 *534:A *28:7 0
*RES
1 FrameData[5] *28:7 39.2018 
2 *28:7 *28:11 31.3506 
3 *28:11 *535:A 20 
*END

*D_NET *29 0.00379336
*CONN
*P FrameData[6] I
*I *536:A I *D sg13g2_buf_1
*CAP
1 FrameData[6] 0.00135043
2 *536:A 0
3 *29:9 0.00135043
4 *29:9 *537:A 0
5 *29:9 *31:9 0
6 *29:9 *77:13 0
7 *29:9 *78:13 0
8 *29:9 *85:10 0.00109251
9 *29:9 *177:9 0
10 *28:7 *29:9 0
*RES
1 FrameData[6] *29:9 36.274 
2 *29:9 *536:A 20 
*END

*D_NET *30 0.00155899
*CONN
*P FrameData[7] I
*I *537:A I *D sg13g2_buf_1
*CAP
1 FrameData[7] 0.000755625
2 *537:A 0.000755625
3 *537:A *539:A 0
4 *537:A *31:9 0
5 *537:A *62:8 0
6 *537:A *64:8 4.77425e-05
7 *29:9 *537:A 0
*RES
1 FrameData[7] *537:A 48.1164 
*END

*D_NET *31 0.00902188
*CONN
*P FrameData[8] I
*I *538:A I *D sg13g2_buf_1
*CAP
1 FrameData[8] 0.00327207
2 *538:A 0
3 *31:9 0.00327207
4 *31:9 *539:A 0
5 *31:9 *62:10 0
6 *31:9 *64:10 0
7 *31:9 *82:11 0
8 *31:9 *85:10 0
9 *31:9 *96:20 0.00247775
10 *537:A *31:9 0
11 *2:9 *31:9 0
12 *29:9 *31:9 0
*RES
1 FrameData[8] *31:9 37.698 
2 *31:9 *538:A 40 
*END

*D_NET *32 0.00152813
*CONN
*P FrameData[9] I
*I *539:A I *D sg13g2_buf_1
*CAP
1 FrameData[9] 0.000764064
2 *539:A 0.000764064
3 *539:A *64:8 0
4 *537:A *539:A 0
5 *2:9 *539:A 0
6 *31:9 *539:A 0
*RES
1 FrameData[9] *539:A 47.8074 
*END

*D_NET *33 0.014328
*CONN
*P FrameData_O[0] O
*I *530:X O *D sg13g2_buf_1
*CAP
1 FrameData_O[0] 0.00343663
2 *530:X 0.000262839
3 *33:14 0.00389094
4 *33:8 0.000717154
5 FrameData_O[0] FrameData_O[1] 0
6 FrameData_O[0] *78:13 0
7 FrameData_O[0] *79:9 0.00519865
8 FrameData_O[0] *80:9 0
9 FrameData_O[0] *81:9 0
10 *33:8 FrameData_O[4] 0
11 *33:14 *562:A 0
12 *33:14 *76:13 0
13 *33:14 *77:13 0
14 *534:A *33:8 0
15 *26:9 *33:8 0
16 *28:7 *33:8 0.000821812
*RES
1 *530:X *33:8 43.811 
2 *33:8 *33:14 44.2127 
3 *33:14 FrameData_O[0] 46.1749 
*END

*D_NET *34 0.00881845
*CONN
*P FrameData_O[10] O
*I *540:X O *D sg13g2_buf_1
*CAP
1 FrameData_O[10] 0.00253469
2 *540:X 0.000132146
3 *34:8 0.00266684
4 FrameData_O[10] FrameData_O[11] 0
5 FrameData_O[10] FrameData_O[9] 0
6 FrameData_O[10] *37:14 0
7 FrameData_O[10] *64:10 0
8 FrameData_O[10] *85:20 0.00327572
9 FrameData_O[10] *104:12 0
10 *34:8 *102:16 0.000209056
11 *34:8 *103:8 0
12 *3:9 FrameData_O[10] 0
*RES
1 *540:X *34:8 41.4008 
2 *34:8 FrameData_O[10] 29.6125 
*END

*D_NET *35 0.00107522
*CONN
*P FrameData_O[11] O
*I *541:X O *D sg13g2_buf_1
*CAP
1 FrameData_O[11] 0.000537611
2 *541:X 0.000537611
3 FrameData_O[11] FrameData_O[12] 0
4 FrameData_O[10] FrameData_O[11] 0
*RES
1 *541:X FrameData_O[11] 45.2839 
*END

*D_NET *36 0.00906877
*CONN
*P FrameData_O[12] O
*I *542:X O *D sg13g2_buf_1
*CAP
1 FrameData_O[12] 0.00135914
2 *542:X 6.42716e-05
3 *36:8 0.00142341
4 FrameData_O[12] FrameData_O[13] 0
5 FrameData_O[12] *38:10 0.00289661
6 FrameData_O[11] FrameData_O[12] 0
7 *3:9 FrameData_O[12] 0
8 *9:13 FrameData_O[12] 0.00332533
*RES
1 *542:X *36:8 40.5356 
2 *36:8 FrameData_O[12] 21.4549 
*END

*D_NET *37 0.0179938
*CONN
*P FrameData_O[13] O
*I *543:X O *D sg13g2_buf_1
*CAP
1 FrameData_O[13] 0.000958097
2 *543:X 0.000143468
3 *37:14 0.00302185
4 *37:12 0.00220722
5 FrameData_O[13] FrameData_O[14] 0
6 FrameData_O[13] *38:16 0.000176997
7 FrameData_O[13] *93:10 0
8 *37:14 *104:12 0.00307742
9 FrameData_O[10] *37:14 0
10 FrameData_O[12] FrameData_O[13] 0
11 *2:9 *37:14 0
12 *3:9 *37:14 0.00840878
13 *9:13 FrameData_O[13] 0
*RES
1 *543:X *37:12 41.5141 
2 *37:12 *37:14 38.6662 
3 *37:14 FrameData_O[13] 49.9704 
*END

*D_NET *38 0.0225945
*CONN
*P FrameData_O[14] O
*I *544:X O *D sg13g2_buf_1
*CAP
1 FrameData_O[14] 0.000747591
2 *544:X 2.41961e-05
3 *38:16 0.000951111
4 *38:10 0.00186345
5 *38:8 0.00168412
6 FrameData_O[14] FrameData_O[15] 0
7 *38:16 FrameData_O[17] 0
8 *38:16 *93:10 0
9 FrameData_O[12] *38:10 0.00289661
10 FrameData_O[13] FrameData_O[14] 0
11 FrameData_O[13] *38:16 0.000176997
12 *3:7 *38:8 0
13 *3:9 *38:10 0.0084549
14 *4:5 *38:10 0.0057955
15 *9:13 *38:10 0
*RES
1 *544:X *38:8 40.3193 
2 *38:8 *38:10 40.891 
3 *38:10 *38:16 42.0497 
4 *38:16 FrameData_O[14] 8.1061 
*END

*D_NET *39 0.00879956
*CONN
*P FrameData_O[15] O
*I *545:X O *D sg13g2_buf_1
*CAP
1 FrameData_O[15] 0.00430307
2 *545:X 9.67076e-05
3 *39:8 0.00439978
4 FrameData_O[15] FrameData_O[16] 0
5 FrameData_O[15] *97:12 0
6 FrameData_O[15] *98:12 0
7 FrameData_O[14] FrameData_O[15] 0
8 *543:A FrameData_O[15] 0
9 *545:A *39:8 0
10 *8:5 FrameData_O[15] 0
11 *18:19 FrameData_O[15] 0
*RES
1 *545:X *39:8 40.9682 
2 *39:8 FrameData_O[15] 48.8941 
*END

*D_NET *40 0.00484367
*CONN
*P FrameData_O[16] O
*I *546:X O *D sg13g2_buf_1
*CAP
1 FrameData_O[16] 0.00242183
2 *546:X 0
3 *40:6 0.00242183
4 FrameData_O[16] FrameData_O[17] 0
5 FrameData_O[16] *98:12 0
6 FrameData_O[15] FrameData_O[16] 0
7 *11:13 FrameData_O[16] 0
8 *15:17 FrameData_O[16] 0
*RES
1 *546:X *40:6 40 
2 *40:6 FrameData_O[16] 23.4325 
*END

*D_NET *41 0.00188355
*CONN
*P FrameData_O[17] O
*I *547:X O *D sg13g2_buf_1
*CAP
1 FrameData_O[17] 0.000917921
2 *547:X 0.000917921
3 FrameData_O[17] FrameData_O[18] 0
4 FrameData_O[17] *95:10 0
5 FrameData_O[16] FrameData_O[17] 0
6 *549:A FrameData_O[17] 4.77083e-05