*SPEF "ieee 1481-1999"
*DESIGN "S_IO"
*DATE "16:17:16 Thursday July 17, 2025"
*VENDOR "The OpenROAD Project"
*PROGRAM "OpenROAD"
*VERSION "341650e72dad0dc8571822ff8c5d9c5e365327f7"
*DESIGN_FLOW "NAME_SCOPE LOCAL" "PIN_CAP NONE"
*DIVIDER /
*DELIMITER :
*BUS_DELIMITER []
*T_UNIT 1 NS
*C_UNIT 1 PF
*R_UNIT 1 OHM
*L_UNIT 1 HENRY

*NAME_MAP
*1 A_I_top
*2 A_O_top
*3 A_T_top
*4 A_config_C_bit0
*5 A_config_C_bit1
*6 A_config_C_bit2
*7 A_config_C_bit3
*8 B_I_top
*9 B_O_top
*10 B_T_top
*11 B_config_C_bit0
*12 B_config_C_bit1
*13 B_config_C_bit2
*14 B_config_C_bit3
*15 Co
*16 FrameData[0]
*17 FrameData[10]
*18 FrameData[11]
*19 FrameData[12]
*20 FrameData[13]
*21 FrameData[14]
*22 FrameData[15]
*23 FrameData[16]
*24 FrameData[17]
*25 FrameData[18]
*26 FrameData[19]
*27 FrameData[1]
*28 FrameData[20]
*29 FrameData[21]
*30 FrameData[22]
*31 FrameData[23]
*32 FrameData[24]
*33 FrameData[25]
*34 FrameData[26]
*35 FrameData[27]
*36 FrameData[28]
*37 FrameData[29]
*38 FrameData[2]
*39 FrameData[30]
*40 FrameData[31]
*41 FrameData[3]
*42 FrameData[4]
*43 FrameData[5]
*44 FrameData[6]
*45 FrameData[7]
*46 FrameData[8]
*47 FrameData[9]
*48 FrameData_O[0]
*49 FrameData_O[10]
*50 FrameData_O[11]
*51 FrameData_O[12]
*52 FrameData_O[13]
*53 FrameData_O[14]
*54 FrameData_O[15]
*55 FrameData_O[16]
*56 FrameData_O[17]
*57 FrameData_O[18]
*58 FrameData_O[19]
*59 FrameData_O[1]
*60 FrameData_O[20]
*61 FrameData_O[21]
*62 FrameData_O[22]
*63 FrameData_O[23]
*64 FrameData_O[24]
*65 FrameData_O[25]
*66 FrameData_O[26]
*67 FrameData_O[27]
*68 FrameData_O[28]
*69 FrameData_O[29]
*70 FrameData_O[2]
*71 FrameData_O[30]
*72 FrameData_O[31]
*73 FrameData_O[3]
*74 FrameData_O[4]
*75 FrameData_O[5]
*76 FrameData_O[6]
*77 FrameData_O[7]
*78 FrameData_O[8]
*79 FrameData_O[9]
*80 FrameStrobe[0]
*81 FrameStrobe[10]
*82 FrameStrobe[11]
*83 FrameStrobe[12]
*84 FrameStrobe[13]
*85 FrameStrobe[14]
*86 FrameStrobe[15]
*87 FrameStrobe[16]
*88 FrameStrobe[17]
*89 FrameStrobe[18]
*90 FrameStrobe[19]
*91 FrameStrobe[1]
*92 FrameStrobe[2]
*93 FrameStrobe[3]
*94 FrameStrobe[4]
*95 FrameStrobe[5]
*96 FrameStrobe[6]
*97 FrameStrobe[7]
*98 FrameStrobe[8]
*99 FrameStrobe[9]
*100 FrameStrobe_O[0]
*101 FrameStrobe_O[10]
*102 FrameStrobe_O[11]
*103 FrameStrobe_O[12]
*104 FrameStrobe_O[13]
*105 FrameStrobe_O[14]
*106 FrameStrobe_O[15]
*107 FrameStrobe_O[16]
*108 FrameStrobe_O[17]
*109 FrameStrobe_O[18]
*110 FrameStrobe_O[19]
*111 FrameStrobe_O[1]
*112 FrameStrobe_O[2]
*113 FrameStrobe_O[3]
*114 FrameStrobe_O[4]
*115 FrameStrobe_O[5]
*116 FrameStrobe_O[6]
*117 FrameStrobe_O[7]
*118 FrameStrobe_O[8]
*119 FrameStrobe_O[9]
*120 N1BEG[0]
*121 N1BEG[1]
*122 N1BEG[2]
*123 N1BEG[3]
*124 N2BEG[0]
*125 N2BEG[1]
*126 N2BEG[2]
*127 N2BEG[3]
*128 N2BEG[4]
*129 N2BEG[5]
*130 N2BEG[6]
*131 N2BEG[7]
*132 N2BEGb[0]
*133 N2BEGb[1]
*134 N2BEGb[2]
*135 N2BEGb[3]
*136 N2BEGb[4]
*137 N2BEGb[5]
*138 N2BEGb[6]
*139 N2BEGb[7]
*140 N4BEG[0]
*141 N4BEG[10]
*142 N4BEG[11]
*143 N4BEG[12]
*144 N4BEG[13]
*145 N4BEG[14]
*146 N4BEG[15]
*147 N4BEG[1]
*148 N4BEG[2]
*149 N4BEG[3]
*150 N4BEG[4]
*151 N4BEG[5]
*152 N4BEG[6]
*153 N4BEG[7]
*154 N4BEG[8]
*155 N4BEG[9]
*156 NN4BEG[0]
*157 NN4BEG[10]
*158 NN4BEG[11]
*159 NN4BEG[12]
*160 NN4BEG[13]
*161 NN4BEG[14]
*162 NN4BEG[15]
*163 NN4BEG[1]
*164 NN4BEG[2]
*165 NN4BEG[3]
*166 NN4BEG[4]
*167 NN4BEG[5]
*168 NN4BEG[6]
*169 NN4BEG[7]
*170 NN4BEG[8]
*171 NN4BEG[9]
*172 S1END[0]
*173 S1END[1]
*174 S1END[2]
*175 S1END[3]
*176 S2END[0]
*177 S2END[1]
*178 S2END[2]
*179 S2END[3]
*180 S2END[4]
*181 S2END[5]
*182 S2END[6]
*183 S2END[7]
*184 S2MID[0]
*185 S2MID[1]
*186 S2MID[2]
*187 S2MID[3]
*188 S2MID[4]
*189 S2MID[5]
*190 S2MID[6]
*191 S2MID[7]
*192 S4END[0]
*193 S4END[10]
*194 S4END[11]
*195 S4END[12]
*196 S4END[13]
*197 S4END[14]
*198 S4END[15]
*199 S4END[1]
*200 S4END[2]
*201 S4END[3]
*202 S4END[4]
*203 S4END[5]
*204 S4END[6]
*205 S4END[7]
*206 S4END[8]
*207 S4END[9]
*208 SS4END[0]
*209 SS4END[10]
*210 SS4END[11]
*211 SS4END[12]
*212 SS4END[13]
*213 SS4END[14]
*214 SS4END[15]
*215 SS4END[1]
*216 SS4END[2]
*217 SS4END[3]
*218 SS4END[4]
*219 SS4END[5]
*220 SS4END[6]
*221 SS4END[7]
*222 SS4END[8]
*223 SS4END[9]
*224 UserCLK
*225 UserCLKo
*228 Inst_A_IO_1_bidirectional_frame_config_pass\.Q
*229 Inst_B_IO_1_bidirectional_frame_config_pass\.Q
*230 Inst_S_IO_ConfigMem\.Inst_frame0_bit0\.Q
*231 Inst_S_IO_ConfigMem\.Inst_frame0_bit1\.Q
*232 Inst_S_IO_ConfigMem\.Inst_frame0_bit10\.Q
*233 Inst_S_IO_ConfigMem\.Inst_frame0_bit11\.Q
*234 Inst_S_IO_ConfigMem\.Inst_frame0_bit12\.Q
*235 Inst_S_IO_ConfigMem\.Inst_frame0_bit13\.Q
*236 Inst_S_IO_ConfigMem\.Inst_frame0_bit14\.Q
*237 Inst_S_IO_ConfigMem\.Inst_frame0_bit15\.Q
*238 Inst_S_IO_ConfigMem\.Inst_frame0_bit16\.Q
*239 Inst_S_IO_ConfigMem\.Inst_frame0_bit17\.Q
*240 Inst_S_IO_ConfigMem\.Inst_frame0_bit18\.Q
*241 Inst_S_IO_ConfigMem\.Inst_frame0_bit19\.Q
*242 Inst_S_IO_ConfigMem\.Inst_frame0_bit2\.Q
*243 Inst_S_IO_ConfigMem\.Inst_frame0_bit20\.Q
*244 Inst_S_IO_ConfigMem\.Inst_frame0_bit21\.Q
*245 Inst_S_IO_ConfigMem\.Inst_frame0_bit22\.Q
*246 Inst_S_IO_ConfigMem\.Inst_frame0_bit23\.Q
*247 Inst_S_IO_ConfigMem\.Inst_frame0_bit24\.Q
*248 Inst_S_IO_ConfigMem\.Inst_frame0_bit25\.Q
*249 Inst_S_IO_ConfigMem\.Inst_frame0_bit26\.Q
*250 Inst_S_IO_ConfigMem\.Inst_frame0_bit27\.Q
*251 Inst_S_IO_ConfigMem\.Inst_frame0_bit28\.Q
*252 Inst_S_IO_ConfigMem\.Inst_frame0_bit29\.Q
*253 Inst_S_IO_ConfigMem\.Inst_frame0_bit3\.Q
*254 Inst_S_IO_ConfigMem\.Inst_frame0_bit30\.Q
*255 Inst_S_IO_ConfigMem\.Inst_frame0_bit31\.Q
*256 Inst_S_IO_ConfigMem\.Inst_frame0_bit4\.Q
*257 Inst_S_IO_ConfigMem\.Inst_frame0_bit5\.Q
*258 Inst_S_IO_ConfigMem\.Inst_frame0_bit6\.Q
*259 Inst_S_IO_ConfigMem\.Inst_frame0_bit7\.Q
*260 Inst_S_IO_ConfigMem\.Inst_frame0_bit8\.Q
*261 Inst_S_IO_ConfigMem\.Inst_frame0_bit9\.Q
*262 Inst_S_IO_ConfigMem\.Inst_frame1_bit0\.Q
*263 Inst_S_IO_ConfigMem\.Inst_frame1_bit1\.Q
*264 Inst_S_IO_ConfigMem\.Inst_frame1_bit10\.Q
*265 Inst_S_IO_ConfigMem\.Inst_frame1_bit11\.Q
*266 Inst_S_IO_ConfigMem\.Inst_frame1_bit12\.Q
*267 Inst_S_IO_ConfigMem\.Inst_frame1_bit13\.Q
*268 Inst_S_IO_ConfigMem\.Inst_frame1_bit14\.Q
*269 Inst_S_IO_ConfigMem\.Inst_frame1_bit15\.Q
*270 Inst_S_IO_ConfigMem\.Inst_frame1_bit16\.Q
*271 Inst_S_IO_ConfigMem\.Inst_frame1_bit17\.Q
*272 Inst_S_IO_ConfigMem\.Inst_frame1_bit18\.Q
*273 Inst_S_IO_ConfigMem\.Inst_frame1_bit19\.Q
*274 Inst_S_IO_ConfigMem\.Inst_frame1_bit2\.Q
*275 Inst_S_IO_ConfigMem\.Inst_frame1_bit20\.Q
*276 Inst_S_IO_ConfigMem\.Inst_frame1_bit21\.Q
*277 Inst_S_IO_ConfigMem\.Inst_frame1_bit22\.Q
*278 Inst_S_IO_ConfigMem\.Inst_frame1_bit23\.Q
*279 Inst_S_IO_ConfigMem\.Inst_frame1_bit24\.Q
*280 Inst_S_IO_ConfigMem\.Inst_frame1_bit25\.Q
*281 Inst_S_IO_ConfigMem\.Inst_frame1_bit26\.Q
*282 Inst_S_IO_ConfigMem\.Inst_frame1_bit27\.Q
*283 Inst_S_IO_ConfigMem\.Inst_frame1_bit28\.Q
*284 Inst_S_IO_ConfigMem\.Inst_frame1_bit29\.Q
*285 Inst_S_IO_ConfigMem\.Inst_frame1_bit3\.Q
*286 Inst_S_IO_ConfigMem\.Inst_frame1_bit30\.Q
*287 Inst_S_IO_ConfigMem\.Inst_frame1_bit31\.Q
*288 Inst_S_IO_ConfigMem\.Inst_frame1_bit4\.Q
*289 Inst_S_IO_ConfigMem\.Inst_frame1_bit5\.Q
*290 Inst_S_IO_ConfigMem\.Inst_frame1_bit6\.Q
*291 Inst_S_IO_ConfigMem\.Inst_frame1_bit7\.Q
*292 Inst_S_IO_ConfigMem\.Inst_frame1_bit8\.Q
*293 Inst_S_IO_ConfigMem\.Inst_frame1_bit9\.Q
*294 Inst_S_IO_ConfigMem\.Inst_frame2_bit0\.Q
*295 Inst_S_IO_ConfigMem\.Inst_frame2_bit1\.Q
*296 Inst_S_IO_ConfigMem\.Inst_frame2_bit10\.Q
*297 Inst_S_IO_ConfigMem\.Inst_frame2_bit11\.Q
*298 Inst_S_IO_ConfigMem\.Inst_frame2_bit12\.Q
*299 Inst_S_IO_ConfigMem\.Inst_frame2_bit13\.Q
*300 Inst_S_IO_ConfigMem\.Inst_frame2_bit14\.Q
*301 Inst_S_IO_ConfigMem\.Inst_frame2_bit15\.Q
*302 Inst_S_IO_ConfigMem\.Inst_frame2_bit16\.Q
*303 Inst_S_IO_ConfigMem\.Inst_frame2_bit17\.Q
*304 Inst_S_IO_ConfigMem\.Inst_frame2_bit18\.Q
*305 Inst_S_IO_ConfigMem\.Inst_frame2_bit19\.Q
*306 Inst_S_IO_ConfigMem\.Inst_frame2_bit2\.Q
*307 Inst_S_IO_ConfigMem\.Inst_frame2_bit20\.Q
*308 Inst_S_IO_ConfigMem\.Inst_frame2_bit21\.Q
*309 Inst_S_IO_ConfigMem\.Inst_frame2_bit22\.Q
*310 Inst_S_IO_ConfigMem\.Inst_frame2_bit23\.Q
*311 Inst_S_IO_ConfigMem\.Inst_frame2_bit24\.Q
*312 Inst_S_IO_ConfigMem\.Inst_frame2_bit25\.Q
*313 Inst_S_IO_ConfigMem\.Inst_frame2_bit26\.Q
*314 Inst_S_IO_ConfigMem\.Inst_frame2_bit27\.Q
*315 Inst_S_IO_ConfigMem\.Inst_frame2_bit28\.Q
*316 Inst_S_IO_ConfigMem\.Inst_frame2_bit29\.Q
*317 Inst_S_IO_ConfigMem\.Inst_frame2_bit3\.Q
*318 Inst_S_IO_ConfigMem\.Inst_frame2_bit30\.Q
*319 Inst_S_IO_ConfigMem\.Inst_frame2_bit31\.Q
*320 Inst_S_IO_ConfigMem\.Inst_frame2_bit4\.Q
*321 Inst_S_IO_ConfigMem\.Inst_frame2_bit5\.Q
*322 Inst_S_IO_ConfigMem\.Inst_frame2_bit6\.Q
*323 Inst_S_IO_ConfigMem\.Inst_frame2_bit7\.Q
*324 Inst_S_IO_ConfigMem\.Inst_frame2_bit8\.Q
*325 Inst_S_IO_ConfigMem\.Inst_frame2_bit9\.Q
*326 Inst_S_IO_ConfigMem\.Inst_frame3_bit18\.Q
*327 Inst_S_IO_ConfigMem\.Inst_frame3_bit19\.Q
*328 Inst_S_IO_ConfigMem\.Inst_frame3_bit20\.Q
*329 Inst_S_IO_ConfigMem\.Inst_frame3_bit21\.Q
*330 Inst_S_IO_ConfigMem\.Inst_frame3_bit22\.Q
*331 Inst_S_IO_ConfigMem\.Inst_frame3_bit23\.Q
*332 Inst_S_IO_ConfigMem\.Inst_frame3_bit24\.Q
*333 Inst_S_IO_ConfigMem\.Inst_frame3_bit25\.Q
*334 Inst_S_IO_ConfigMem\.Inst_frame3_bit26\.Q
*335 Inst_S_IO_ConfigMem\.Inst_frame3_bit27\.Q
*336 Inst_S_IO_ConfigMem\.Inst_frame3_bit28\.Q
*337 Inst_S_IO_ConfigMem\.Inst_frame3_bit29\.Q
*338 Inst_S_IO_ConfigMem\.Inst_frame3_bit30\.Q
*339 Inst_S_IO_ConfigMem\.Inst_frame3_bit31\.Q
*340 Inst_S_IO_switch_matrix\.DEBUG_select_N1BEG0[0]
*341 Inst_S_IO_switch_matrix\.DEBUG_select_N1BEG1[0]
*342 Inst_S_IO_switch_matrix\.DEBUG_select_N1BEG2[0]
*343 Inst_S_IO_switch_matrix\.DEBUG_select_N1BEG3[0]
*344 Inst_S_IO_switch_matrix\.N1BEG0
*345 Inst_S_IO_switch_matrix\.N1BEG1
*346 Inst_S_IO_switch_matrix\.N1BEG2
*347 Inst_S_IO_switch_matrix\.N1BEG3
*348 Inst_S_IO_switch_matrix\.N2BEG0
*349 Inst_S_IO_switch_matrix\.N2BEG1
*350 Inst_S_IO_switch_matrix\.N2BEG2
*351 Inst_S_IO_switch_matrix\.N2BEG3
*352 Inst_S_IO_switch_matrix\.N2BEG4
*353 Inst_S_IO_switch_matrix\.N2BEG5
*354 Inst_S_IO_switch_matrix\.N2BEG6
*355 Inst_S_IO_switch_matrix\.N2BEG7
*356 Inst_S_IO_switch_matrix\.N2BEGb0
*357 Inst_S_IO_switch_matrix\.N2BEGb1
*358 Inst_S_IO_switch_matrix\.N2BEGb2
*359 Inst_S_IO_switch_matrix\.N2BEGb3
*360 Inst_S_IO_switch_matrix\.N2BEGb4
*361 Inst_S_IO_switch_matrix\.N2BEGb5
*362 Inst_S_IO_switch_matrix\.N2BEGb6
*363 Inst_S_IO_switch_matrix\.N2BEGb7
*364 Inst_S_IO_switch_matrix\.N4BEG0
*365 Inst_S_IO_switch_matrix\.N4BEG1
*366 Inst_S_IO_switch_matrix\.N4BEG10
*367 Inst_S_IO_switch_matrix\.N4BEG11
*368 Inst_S_IO_switch_matrix\.N4BEG12
*369 Inst_S_IO_switch_matrix\.N4BEG13
*370 Inst_S_IO_switch_matrix\.N4BEG14
*371 Inst_S_IO_switch_matrix\.N4BEG15
*372 Inst_S_IO_switch_matrix\.N4BEG2
*373 Inst_S_IO_switch_matrix\.N4BEG3
*374 Inst_S_IO_switch_matrix\.N4BEG4
*375 Inst_S_IO_switch_matrix\.N4BEG5
*376 Inst_S_IO_switch_matrix\.N4BEG6
*377 Inst_S_IO_switch_matrix\.N4BEG7
*378 Inst_S_IO_switch_matrix\.N4BEG8
*379 Inst_S_IO_switch_matrix\.N4BEG9
*380 Inst_S_IO_switch_matrix\.NN4BEG0
*381 Inst_S_IO_switch_matrix\.NN4BEG1
*382 Inst_S_IO_switch_matrix\.NN4BEG10
*383 Inst_S_IO_switch_matrix\.NN4BEG11
*384 Inst_S_IO_switch_matrix\.NN4BEG12
*385 Inst_S_IO_switch_matrix\.NN4BEG13
*386 Inst_S_IO_switch_matrix\.NN4BEG14
*387 Inst_S_IO_switch_matrix\.NN4BEG15
*388 Inst_S_IO_switch_matrix\.NN4BEG2
*389 Inst_S_IO_switch_matrix\.NN4BEG3
*390 Inst_S_IO_switch_matrix\.NN4BEG4
*391 Inst_S_IO_switch_matrix\.NN4BEG5
*392 Inst_S_IO_switch_matrix\.NN4BEG6
*393 Inst_S_IO_switch_matrix\.NN4BEG7
*394 Inst_S_IO_switch_matrix\.NN4BEG8
*395 Inst_S_IO_switch_matrix\.NN4BEG9
*396 UserCLK_regs
*397 _000_
*398 _001_
*399 _002_
*400 _003_
*401 _004_
*402 _005_
*403 _006_
*404 _007_
*405 _008_
*406 _009_
*407 _010_
*408 _011_
*409 _012_
*410 _013_
*411 _014_
*412 _015_
*413 _016_
*414 _017_
*415 _018_
*416 _019_
*417 _020_
*418 _021_
*419 _022_
*420 _023_
*421 _024_
*422 _025_
*423 _026_
*424 _027_
*425 _028_
*426 _029_
*427 _030_
*428 _031_
*429 _032_
*430 _033_
*431 _034_
*432 _035_
*433 _036_
*434 _037_
*435 _038_
*436 _039_
*437 _040_
*438 _041_
*439 _042_
*440 _043_
*441 _044_
*442 _045_
*443 _046_
*444 clknet_0_UserCLK
*445 clknet_0_UserCLK_regs
*446 clknet_1_0__leaf_UserCLK
*447 clknet_1_0__leaf_UserCLK_regs
*448 clknet_1_1__leaf_UserCLK_regs
*449 FILLER_0_0
*450 FILLER_0_11
*451 FILLER_0_140
*452 FILLER_0_147
*453 FILLER_0_154
*454 FILLER_0_156
*455 FILLER_0_178
*456 FILLER_0_230
*457 FILLER_0_251
*458 FILLER_0_269
*459 FILLER_0_273
*460 FILLER_0_292
*461 FILLER_0_30
*462 FILLER_0_356
*463 FILLER_0_383
*464 FILLER_0_390
*465 FILLER_0_397
*466 FILLER_0_404
*467 FILLER_0_408
*468 FILLER_0_41
*469 FILLER_0_421
*470 FILLER_0_423
*471 FILLER_0_48
*472 FILLER_0_7
*473 FILLER_10_0
*474 FILLER_10_120
*475 FILLER_10_122
*476 FILLER_10_161
*477 FILLER_10_163
*478 FILLER_10_202
*479 FILLER_10_241
*480 FILLER_10_247
*481 FILLER_10_252
*482 FILLER_10_282
*483 FILLER_10_322
*484 FILLER_10_344
*485 FILLER_10_355
*486 FILLER_10_357
*487 FILLER_10_396
*488 FILLER_10_400
*489 FILLER_10_421
*490 FILLER_10_423
*491 FILLER_10_43
*492 FILLER_10_49
*493 FILLER_10_71
*494 FILLER_10_96
*495 FILLER_10_98
*496 FILLER_11_0
*497 FILLER_11_118
*498 FILLER_11_125
*499 FILLER_11_132
*500 FILLER_11_134
*501 FILLER_11_139
*502 FILLER_11_160
*503 FILLER_11_162
*504 FILLER_11_167
*505 FILLER_11_174
*506 FILLER_11_181
*507 FILLER_11_204
*508 FILLER_11_211
*509 FILLER_11_218
*510 FILLER_11_223
*511 FILLER_11_258
*512 FILLER_11_265
*513 FILLER_11_267
*514 FILLER_11_285
*515 FILLER_11_292
*516 FILLER_11_329
*517 FILLER_11_347
*518 FILLER_11_351
*519 FILLER_11_369
*520 FILLER_11_377
*521 FILLER_11_383
*522 FILLER_11_385
*523 FILLER_11_403
*524 FILLER_11_410
*525 FILLER_11_412
*526 FILLER_11_421
*527 FILLER_11_423
*528 FILLER_1_0
*529 FILLER_1_165
*530 FILLER_1_193
*531 FILLER_1_200
*532 FILLER_1_207
*533 FILLER_1_24
*534 FILLER_1_26
*535 FILLER_1_277
*536 FILLER_1_320
*537 FILLER_1_322
*538 FILLER_1_384
*539 FILLER_1_389
*540 FILLER_1_412
*541 FILLER_1_421
*542 FILLER_1_423
*543 FILLER_1_59
*544 FILLER_2_0
*545 FILLER_2_101
*546 FILLER_2_119
*547 FILLER_2_125
*548 FILLER_2_132
*549 FILLER_2_136
*550 FILLER_2_213
*551 FILLER_2_247
*552 FILLER_2_251
*553 FILLER_2_273
*554 FILLER_2_291
*555 FILLER_2_295
*556 FILLER_2_313
*557 FILLER_2_332
*558 FILLER_2_336
*559 FILLER_2_355
*560 FILLER_2_391
*561 FILLER_2_398
*562 FILLER_2_4
*563 FILLER_2_405
*564 FILLER_2_421
*565 FILLER_2_423
*566 FILLER_2_48
*567 FILLER_2_72
*568 FILLER_2_79
*569 FILLER_2_81
*570 FILLER_2_99
*571 FILLER_3_0
*572 FILLER_3_109
*573 FILLER_3_113
*574 FILLER_3_166
*575 FILLER_3_195
*576 FILLER_3_21
*577 FILLER_3_213
*578 FILLER_3_220
*579 FILLER_3_222
*580 FILLER_3_291
*581 FILLER_3_310
*582 FILLER_3_320
*583 FILLER_3_324
*584 FILLER_3_347
*585 FILLER_3_375
*586 FILLER_3_393
*587 FILLER_3_400
*588 FILLER_3_407
*589 FILLER_3_417
*590 FILLER_3_43
*591 FILLER_3_50
*592 FILLER_3_67
*593 FILLER_3_74
*594 FILLER_3_81
*595 FILLER_4_0
*596 FILLER_4_121
*597 FILLER_4_144
*598 FILLER_4_146
*599 FILLER_4_168
*600 FILLER_4_175
*601 FILLER_4_182
*602 FILLER_4_189
*603 FILLER_4_21
*604 FILLER_4_214
*605 FILLER_4_221
*606 FILLER_4_228
*607 FILLER_4_23
*608 FILLER_4_272
*609 FILLER_4_304
*610 FILLER_4_323
*611 FILLER_4_325
*612 FILLER_4_347
*613 FILLER_4_349
*614 FILLER_4_375
*615 FILLER_4_379
*616 FILLER_4_402
*617 FILLER_4_421
*618 FILLER_4_423
*619 FILLER_4_54
*620 FILLER_4_79
*621 FILLER_4_86
*622 FILLER_4_93
*623 FILLER_5_0
*624 FILLER_5_106
*625 FILLER_5_108
*626 FILLER_5_134
*627 FILLER_5_138
*628 FILLER_5_144
*629 FILLER_5_151
*630 FILLER_5_158
*631 FILLER_5_170
*632 FILLER_5_177
*633 FILLER_5_195
*634 FILLER_5_202
*635 FILLER_5_204
*636 FILLER_5_22
*637 FILLER_5_230
*638 FILLER_5_234
*639 FILLER_5_24
*640 FILLER_5_253
*641 FILLER_5_260
*642 FILLER_5_267
*643 FILLER_5_311
*644 FILLER_5_318
*645 FILLER_5_320
*646 FILLER_5_338
*647 FILLER_5_362
*648 FILLER_5_373
*649 FILLER_5_4
*650 FILLER_5_421
*651 FILLER_5_423
*652 FILLER_5_70
*653 FILLER_5_77
*654 FILLER_5_84
*655 FILLER_6_0
*656 FILLER_6_105
*657 FILLER_6_112
*658 FILLER_6_205
*659 FILLER_6_21
*660 FILLER_6_243
*661 FILLER_6_250
*662 FILLER_6_254
*663 FILLER_6_273
*664 FILLER_6_28
*665 FILLER_6_280
*666 FILLER_6_286
*667 FILLER_6_30
*668 FILLER_6_308
*669 FILLER_6_336
*670 FILLER_6_343
*671 FILLER_6_386
*672 FILLER_6_39
*673 FILLER_6_410
*674 FILLER_6_412
*675 FILLER_6_421
*676 FILLER_6_423
*677 FILLER_7_0
*678 FILLER_7_137
*679 FILLER_7_139
*680 FILLER_7_14
*681 FILLER_7_161
*682 FILLER_7_168
*683 FILLER_7_170
*684 FILLER_7_188
*685 FILLER_7_232
*686 FILLER_7_257
*687 FILLER_7_264
*688 FILLER_7_268
*689 FILLER_7_311
*690 FILLER_7_313
*691 FILLER_7_33
*692 FILLER_7_352
*693 FILLER_7_363
*694 FILLER_7_370
*695 FILLER_7_377
*696 FILLER_7_383
*697 FILLER_7_410
*698 FILLER_7_412
*699 FILLER_7_421
*700 FILLER_7_423
*701 FILLER_7_7
*702 FILLER_7_92
*703 FILLER_7_94
*704 FILLER_8_0
*705 FILLER_8_113
*706 FILLER_8_124
*707 FILLER_8_128
*708 FILLER_8_134
*709 FILLER_8_136
*710 FILLER_8_188
*711 FILLER_8_209
*712 FILLER_8_22
*713 FILLER_8_227
*714 FILLER_8_234
*715 FILLER_8_24
*716 FILLER_8_258
*717 FILLER_8_293
*718 FILLER_8_300
*719 FILLER_8_319
*720 FILLER_8_337
*721 FILLER_8_342
*722 FILLER_8_346
*723 FILLER_8_364
*724 FILLER_8_382
*725 FILLER_8_389
*726 FILLER_8_4
*727 FILLER_8_410
*728 FILLER_8_412
*729 FILLER_8_421
*730 FILLER_8_423
*731 FILLER_8_57
*732 FILLER_8_64
*733 FILLER_9_0
*734 FILLER_9_106
*735 FILLER_9_115
*736 FILLER_9_119
*737 FILLER_9_137
*738 FILLER_9_159
*739 FILLER_9_167
*740 FILLER_9_194
*741 FILLER_9_200
*742 FILLER_9_204
*743 FILLER_9_230
*744 FILLER_9_237
*745 FILLER_9_24
*746 FILLER_9_276
*747 FILLER_9_278
*748 FILLER_9_296
*749 FILLER_9_318
*750 FILLER_9_322
*751 FILLER_9_331
*752 FILLER_9_333
*753 FILLER_9_351
*754 FILLER_9_358
*755 FILLER_9_362
*756 FILLER_9_406
*757 FILLER_9_408
*758 FILLER_9_41
*759 FILLER_9_421
*760 FILLER_9_423
*761 FILLER_9_69
*762 FILLER_9_76
*763 FILLER_9_83
*764 _047_
*765 _048_
*766 _049_
*767 _050_
*768 _051_
*769 _052_
*770 _053_
*771 _054_
*772 _055_
*773 _056_
*774 _057_
*775 _058_
*776 _059_
*777 _060_
*778 _061_
*779 _062_
*780 _063_
*781 _064_
*782 _065_
*783 _066_
*784 _067_
*785 _068_
*786 _069_
*787 _070_
*788 _071_
*789 _072_
*790 _073_
*791 _074_
*792 _075_
*793 _076_
*794 _077_
*795 _078_
*796 _079_
*797 _080_
*798 _081_
*799 _082_
*800 _083_
*801 _084_
*802 _085_
*803 _086_
*804 _087_
*805 _088_
*806 _089_
*807 _090_
*808 _091_
*809 _092_
*810 _093_
*811 _094_
*812 _095_
*813 _096_
*814 _097_
*815 _098_
*816 _099_
*817 _100_
*818 _101_
*819 _102_
*820 _103_
*821 _104_
*822 _105_
*823 _106_
*824 _107_
*825 _108_
*826 _109_
*827 _110_
*828 _111_
*829 _112_
*830 _113_
*831 _114_
*832 _115_
*833 _116_
*834 _117_
*835 _118_
*836 _119_
*837 _120_
*838 _121_
*839 _122_
*840 _123_
*841 _124_
*842 _125_
*843 _126_
*844 _127_
*845 _128_
*846 _129_
*847 _130_
*848 _131_
*849 _132_
*850 _133_
*851 _134_
*852 _135_
*853 _136_
*854 _137_
*855 _138_
*856 _139_
*857 _140_
*858 _141_
*859 _142_
*860 _143_
*861 _144_
*862 _145_
*863 _146_
*864 _147_
*865 _148_
*866 _149_
*867 _150_
*868 _151_
*869 _152_
*870 _153_
*871 _154_
*872 _155_
*873 _156_
*874 _157_
*875 _158_
*876 _159_
*877 _160_
*878 _161_
*879 _162_
*880 _163_
*881 _164_
*882 _165_
*883 _166_
*884 _167_
*885 _168_
*886 _169_
*887 _170_
*888 _171_
*889 _172_
*890 _173_
*891 _174_
*892 _175_
*893 _176_
*894 _177_
*895 _178_
*896 _179_
*897 _180_
*898 _181_
*899 _182_
*900 _183_
*901 _184_
*902 _185_
*903 _186_
*904 _187_
*905 _188_
*906 _189_
*907 _190_
*908 _191_
*909 _192_
*910 _193_
*911 _194_
*912 _195_
*913 _196_
*914 _197_
*915 _198_
*916 _199_
*917 _200_
*918 _201_
*919 _202_
*920 _203_
*921 _204_
*922 _205_
*923 _206_
*924 _207_
*925 _208_
*926 _209_
*927 _210_
*928 _211_
*929 _212_
*930 _213_
*931 _214_
*932 _215_
*933 _216_
*934 _217_
*935 _218_
*936 _219_
*937 _220_
*938 _221_
*939 _222_
*940 _223_
*941 _224_
*942 _225_
*943 _226_
*944 _227_
*945 _228_
*946 _229_
*947 _230_
*948 _231_
*949 _232_
*950 _233_
*951 _234_
*952 _235_
*953 _236_
*954 _237_
*955 _238_
*956 _239_
*957 _240_
*958 _241_
*959 _242_
*960 _243_
*961 _244_
*962 _245_
*963 _246_
*964 _247_
*965 _248_
*966 _249_
*967 _250_
*968 _251_
*969 _252_
*970 _253_
*971 _254_
*972 _255_
*973 _256_
*974 _257_
*975 _258_
*976 _259_
*977 _260_
*978 _261_
*979 _262_
*980 _263_
*981 _264_
*982 _265_
*983 _266_
*984 _267_
*985 _268_
*986 _269_
*987 _270_
*988 _271_
*989 _272_
*990 _273_
*991 _274_
*992 _275_
*993 _276_
*994 _277_
*995 _278_
*996 _279_
*997 _280_
*998 _281_
*999 _282_
*1000 _283_
*1001 _284_
*1002 _285_
*1003 _286_
*1004 _287_
*1005 _288_
*1006 _289_
*1007 _290_
*1008 _291_
*1009 _292_
*1010 _293_
*1011 _294_
*1012 _295_
*1013 _296_
*1014 _297_
*1015 _298_
*1016 _299_
*1017 _300_
*1018 _301_
*1019 _302_
*1020 _303_
*1021 _304_
*1022 _305_
*1023 _306_
*1024 _307_
*1025 _308_
*1026 _309_
*1027 _310_
*1028 _311_
*1029 _312_
*1030 _313_
*1031 _314_
*1032 _315_
*1033 _316_
*1034 _317_
*1035 _318_
*1036 _319_
*1037 _320_
*1038 _321_
*1039 _322_
*1040 _323_
*1041 _324_
*1042 _325_
*1043 _326_
*1044 _327_
*1045 _328_
*1046 _329_
*1047 _330_
*1048 _331_
*1049 _332_
*1050 _333_
*1051 _334_
*1052 _335_
*1053 _336_
*1054 _337_
*1055 _338_
*1056 _339_
*1057 _340_
*1058 _341_
*1059 _342_
*1060 _343_
*1061 _344_
*1062 _345_
*1063 _346_
*1064 _347_
*1065 _348_
*1066 _349_
*1067 _350_
*1068 _351_
*1069 _352_
*1070 _353_
*1071 _354_
*1072 _355_
*1073 _356_
*1074 _357_
*1075 _358_
*1076 _359_
*1077 _360_
*1078 _361_
*1079 _362_
*1080 _363_
*1081 _364_
*1082 _365_
*1083 _366_
*1084 _367_
*1085 _368_
*1086 _369_
*1087 _370_
*1088 _371_
*1089 _372_
*1090 _373_
*1091 _374_
*1092 _375_
*1093 _376_
*1094 _377_
*1095 _378_
*1096 _379_
*1097 clkbuf_0_UserCLK
*1098 clkbuf_0_UserCLK_regs
*1099 clkbuf_1_0__f_UserCLK
*1100 clkbuf_1_0__f_UserCLK_regs
*1101 clkbuf_1_1__f_UserCLK_regs
*1102 clkbuf_regs_0_UserCLK

*PORTS
A_I_top O
A_O_top I
A_T_top O
A_config_C_bit0 O
A_config_C_bit1 O
A_config_C_bit2 O
A_config_C_bit3 O
B_I_top O
B_O_top I
B_T_top O
B_config_C_bit0 O
B_config_C_bit1 O
B_config_C_bit2 O
B_config_C_bit3 O
Co O
FrameData[0] I
FrameData[10] I
FrameData[11] I
FrameData[12] I
FrameData[13] I
FrameData[14] I
FrameData[15] I
FrameData[16] I
FrameData[17] I
FrameData[18] I
FrameData[19] I
FrameData[1] I
FrameData[20] I
FrameData[21] I
FrameData[22] I
FrameData[23] I
FrameData[24] I
FrameData[25] I
FrameData[26] I
FrameData[27] I
FrameData[28] I
FrameData[29] I
FrameData[2] I
FrameData[30] I
FrameData[31] I
FrameData[3] I
FrameData[4] I
FrameData[5] I
FrameData[6] I
FrameData[7] I
FrameData[8] I
FrameData[9] I
FrameData_O[0] O
FrameData_O[10] O
FrameData_O[11] O
FrameData_O[12] O
FrameData_O[13] O
FrameData_O[14] O
FrameData_O[15] O
FrameData_O[16] O
FrameData_O[17] O
FrameData_O[18] O
FrameData_O[19] O
FrameData_O[1] O
FrameData_O[20] O
FrameData_O[21] O
FrameData_O[22] O
FrameData_O[23] O
FrameData_O[24] O
FrameData_O[25] O
FrameData_O[26] O
FrameData_O[27] O
FrameData_O[28] O
FrameData_O[29] O
FrameData_O[2] O
FrameData_O[30] O
FrameData_O[31] O
FrameData_O[3] O
FrameData_O[4] O
FrameData_O[5] O
FrameData_O[6] O
FrameData_O[7] O
FrameData_O[8] O
FrameData_O[9] O
FrameStrobe[0] I
FrameStrobe[10] I
FrameStrobe[11] I
FrameStrobe[12] I
FrameStrobe[13] I
FrameStrobe[14] I
FrameStrobe[15] I
FrameStrobe[16] I
FrameStrobe[17] I
FrameStrobe[18] I
FrameStrobe[19] I
FrameStrobe[1] I
FrameStrobe[2] I
FrameStrobe[3] I
FrameStrobe[4] I
FrameStrobe[5] I
FrameStrobe[6] I
FrameStrobe[7] I
FrameStrobe[8] I
FrameStrobe[9] I
FrameStrobe_O[0] O
FrameStrobe_O[10] O
FrameStrobe_O[11] O
FrameStrobe_O[12] O
FrameStrobe_O[13] O
FrameStrobe_O[14] O
FrameStrobe_O[15] O
FrameStrobe_O[16] O
FrameStrobe_O[17] O
FrameStrobe_O[18] O
FrameStrobe_O[19] O
FrameStrobe_O[1] O
FrameStrobe_O[2] O
FrameStrobe_O[3] O
FrameStrobe_O[4] O
FrameStrobe_O[5] O
FrameStrobe_O[6] O
FrameStrobe_O[7] O
FrameStrobe_O[8] O
FrameStrobe_O[9] O
N1BEG[0] O
N1BEG[1] O
N1BEG[2] O
N1BEG[3] O
N2BEG[0] O
N2BEG[1] O
N2BEG[2] O
N2BEG[3] O
N2BEG[4] O
N2BEG[5] O
N2BEG[6] O
N2BEG[7] O
N2BEGb[0] O
N2BEGb[1] O
N2BEGb[2] O
N2BEGb[3] O
N2BEGb[4] O
N2BEGb[5] O
N2BEGb[6] O
N2BEGb[7] O
N4BEG[0] O
N4BEG[10] O
N4BEG[11] O
N4BEG[12] O
N4BEG[13] O
N4BEG[14] O
N4BEG[15] O
N4BEG[1] O
N4BEG[2] O
N4BEG[3] O
N4BEG[4] O
N4BEG[5] O
N4BEG[6] O
N4BEG[7] O
N4BEG[8] O
N4BEG[9] O
NN4BEG[0] O
NN4BEG[10] O
NN4BEG[11] O
NN4BEG[12] O
NN4BEG[13] O
NN4BEG[14] O
NN4BEG[15] O
NN4BEG[1] O
NN4BEG[2] O
NN4BEG[3] O
NN4BEG[4] O
NN4BEG[5] O
NN4BEG[6] O
NN4BEG[7] O
NN4BEG[8] O
NN4BEG[9] O
S1END[0] I
S1END[1] I
S1END[2] I
S1END[3] I
S2END[0] I
S2END[1] I
S2END[2] I
S2END[3] I
S2END[4] I
S2END[5] I
S2END[6] I
S2END[7] I
S2MID[0] I
S2MID[1] I
S2MID[2] I
S2MID[3] I
S2MID[4] I
S2MID[5] I
S2MID[6] I
S2MID[7] I
S4END[0] I
S4END[10] I
S4END[11] I
S4END[12] I
S4END[13] I
S4END[14] I
S4END[15] I
S4END[1] I
S4END[2] I
S4END[3] I
S4END[4] I
S4END[5] I
S4END[6] I
S4END[7] I
S4END[8] I
S4END[9] I
SS4END[0] I
SS4END[10] I
SS4END[11] I
SS4END[12] I
SS4END[13] I
SS4END[14] I
SS4END[15] I
SS4END[1] I
SS4END[2] I
SS4END[3] I
SS4END[4] I
SS4END[5] I
SS4END[6] I
SS4END[7] I
SS4END[8] I
SS4END[9] I
UserCLK I
UserCLKo O

*D_NET *1 0.00582592
*CONN
*P A_I_top O
*I *833:Y O *D sg13g2_o21ai_1
*CAP
1 A_I_top 0.00113071
2 *833:Y 0.000875047
3 *1:8 0.00200576
4 A_I_top *977:GATE 0
5 A_I_top *978:D 0
6 A_I_top *978:GATE 0
7 A_I_top *18:11 7.92265e-05
8 A_I_top *80:72 0.000144728
9 A_I_top *80:76 7.53965e-05
10 A_I_top *80:83 0
11 *1:8 *831:S 0
12 *1:8 *17:13 0
13 *1:8 *19:13 0.00123378
14 *1:8 *241:41 0.000281278
15 *1:8 *243:10 0
16 *1:8 *417:10 0
*RES
1 *833:Y *1:8 49.2494 
2 *1:8 A_I_top 31.0622 
*END

*D_NET *2 0.0500335
*CONN
*P A_O_top I
*I *784:A1 I *D sg13g2_mux2_1
*I *839:A3 I *D sg13g2_mux4_1
*I *849:A3 I *D sg13g2_mux4_1
*I *764:A3 I *D sg13g2_mux4_1
*I *859:A3 I *D sg13g2_mux4_1
*I *863:A3 I *D sg13g2_mux4_1
*I *861:A3 I *D sg13g2_mux4_1
*I *987:D I *D sg13g2_dfrbpq_1
*CAP
1 A_O_top 0.00160691
2 *784:A1 0.00185209
3 *839:A3 2.77263e-05
4 *849:A3 4.28947e-05
5 *764:A3 0.000315302
6 *859:A3 5.14025e-05
7 *863:A3 0.00036405
8 *861:A3 4.28919e-05
9 *987:D 0
10 *2:91 0.000818307
11 *2:78 0.000592936
12 *2:74 0.000866877
13 *2:63 0
14 *2:59 0.00151452
15 *2:55 0.00285659
16 *2:49 0.00321023
17 *2:35 0.00239257
18 *2:31 0.00142339
19 *2:25 0.00152792
20 *2:21 0.0032336
21 *2:17 0.00544079
22 *2:9 0.00211593
23 *764:A3 *861:S0 0
24 *764:A3 *861:A1 4.77702e-05
25 *764:A3 *106:14 0
26 *784:A1 *771:A0 0
27 *784:A1 *782:S 6.99456e-05
28 *784:A1 *784:S 0
29 *784:A1 *1046:A 0.000225022
30 *784:A1 *9:21 0
31 *784:A1 *19:13 0
32 *784:A1 *29:51 0.00014454
33 *784:A1 *92:144 0.000176365
34 *784:A1 *120:12 0
35 *784:A1 *175:42 0
36 *784:A1 *190:49 0
37 *784:A1 *204:58 0
38 *784:A1 *344:10 0.000208255
39 *849:A3 *93:234 6.46537e-05
40 *849:A3 *191:13 0
41 *859:A3 *859:S1 0
42 *859:A3 *1021:A 0
43 *859:A3 *33:80 0
44 *863:A3 *859:A2 0
45 *863:A3 *859:S1 0
46 *863:A3 *863:S1 0
47 *863:A3 *922:D 0
48 *863:A3 *33:80 0
49 *863:A3 *37:91 0
50 *2:9 *9:17 0
51 *2:9 *43:9 0.0042768
52 *2:9 *44:5 0
53 *2:9 *80:46 0.000692408
54 *2:9 *80:64 0.000145303
55 *2:9 *93:56 0.000555736
56 *2:9 *247:44 0
57 *2:9 *430:10 0.000816296
58 *2:17 *771:S0 0.000274527
59 *2:17 *771:A0 0
60 *2:17 *867:D 0
61 *2:17 *19:13 0
62 *2:21 *923:GATE 0.000444964
63 *2:21 *944:GATE 0.000657263
64 *2:21 *16:24 0
65 *2:21 *18:38 0
66 *2:21 *44:30 0
67 *2:21 *44:38 0
68 *2:21 *80:248 0
69 *2:21 *91:128 0.000285602
70 *2:21 *91:130 0.000500163
71 *2:21 *204:43 0
72 *2:21 *204:47 0
73 *2:21 *206:38 0
74 *2:21 *262:10 0.00034162
75 *2:21 *393:14 0
76 *2:21 *394:10 0
77 *2:25 *839:A2 0
78 *2:25 *92:17 0
79 *2:31 *781:S 0
80 *2:31 *849:A0 0
81 *2:31 *907:GATE 0
82 *2:31 *39:39 0
83 *2:31 *91:76 0.00017625
84 *2:31 *92:17 0
85 *2:31 *175:15 0
86 *2:31 *176:26 0.00049609
87 *2:31 *189:25 0.000272823
88 *2:35 *93:234 0.000111523
89 *2:49 *855:A2 0.000610283
90 *2:49 *21:46 0.000126859
91 *2:49 *22:40 0.00128543
92 *2:49 *32:55 0.00224322
93 *2:49 *32:63 0.000303279
94 *2:49 *32:86 0.00028178
95 *2:49 *39:57 0
96 *2:49 *128:12 0
97 *2:49 *177:21 0
98 *2:49 *191:11 0
99 *2:49 *366:10 0
100 *2:55 *22:67 0.00050271
101 *2:55 *32:86 0
102 *2:55 *33:80 0
103 *2:55 *105:20 0
104 *2:55 *366:10 0.000440467
105 *2:55 *385:12 0.000287138
106 *2:59 *105:10 0
107 *2:59 *164:16 0
108 *2:59 *345:12 0
109 *2:74 *861:S0 1.54285e-05
110 *2:74 *22:67 0.00109372
111 *2:74 *33:80 0
112 *2:74 *105:20 0
113 *2:78 *22:67 0.00044727
114 *2:78 *32:86 0
115 *2:91 *22:67 0.00111507
116 *2:91 *32:86 0
117 *2:91 *318:10 0
*RES
1 A_O_top *2:9 44.5861 
2 *2:9 *2:17 25.0985 
3 *2:17 *2:21 49.5198 
4 *2:21 *2:25 21.4008 
5 *2:25 *2:31 32.2879 
6 *2:31 *2:35 20.7519 
7 *2:35 *2:49 45.1835 
8 *2:49 *2:55 9.4245 
9 *2:55 *2:59 34.5951 
10 *2:59 *2:63 40 
11 *2:63 *987:D 20 
12 *2:55 *2:74 25.5826 
13 *2:74 *2:78 22.0806 
14 *2:78 *861:A3 40.5356 
15 *2:78 *2:91 25.2942 
16 *2:91 *863:A3 23.1942 
17 *2:91 *859:A3 20.5356 
18 *2:74 *764:A3 22.9664 
19 *2:35 *849:A3 20.5356 
20 *2:25 *839:A3 20.3502 
21 *2:17 *784:A1 37.201 
*END

*D_NET *3 0.00158394
*CONN
*P A_T_top O
*I *793:Y O *D sg13g2_o21ai_1
*CAP
1 A_T_top 0.000250448
2 *793:Y 0.000116115
3 *3:8 0.000366563
4 *3:8 *41:13 0.0005078
5 *3:8 *245:8 0.000343014
*RES
1 *793:Y *3:8 42.3278 
2 *3:8 A_T_top 22.3278 
*END

*D_NET *4 0.00151732
*CONN
*P A_config_C_bit0 O
*I *865:Q O *D sg13g2_dlhq_1
*CAP
1 A_config_C_bit0 0.000228212
2 *865:Q 7.92539e-05
3 *4:8 0.000307466
4 *4:8 *27:22 0.000449343
5 *4:8 *41:13 0.000453045
*RES
1 *865:Q *4:8 42.0806 
2 *4:8 A_config_C_bit0 22.3278 
*END

*D_NET *5 0.002539
*CONN
*P A_config_C_bit1 O
*I *866:Q O *D sg13g2_dlhq_1
*CAP
1 A_config_C_bit1 0.000267469
2 *866:Q 0.000302926
3 *5:10 0.000570395
4 A_config_C_bit1 *6:10 0
5 A_config_C_bit1 *43:17 8.00842e-05
6 *5:10 *771:S0 0
7 *5:10 *895:GATE 0
8 *5:10 *27:22 0.000659729
9 *5:10 *42:24 0.000658399
10 *5:10 *93:66 0
*RES
1 *866:Q *5:10 44.6865 
2 *5:10 A_config_C_bit1 22.7604 
*END

*D_NET *6 0.00134387
*CONN
*P A_config_C_bit2 O
*I *867:Q O *D sg13g2_dlhq_1
*CAP
1 A_config_C_bit2 1.50682e-05