*SPEF "ieee 1481-1999"
*DESIGN "NE_term"
*DATE "18:34:04 Friday July 25, 2025"
*VENDOR "The OpenROAD Project"
*PROGRAM "OpenROAD"
*VERSION "341650e72dad0dc8571822ff8c5d9c5e365327f7"
*DESIGN_FLOW "NAME_SCOPE LOCAL" "PIN_CAP NONE"
*DIVIDER /
*DELIMITER :
*BUS_DELIMITER []
*T_UNIT 1 NS
*C_UNIT 1 PF
*R_UNIT 1 OHM
*L_UNIT 1 HENRY

*NAME_MAP
*1 FrameData[0]
*2 FrameData[10]
*3 FrameData[11]
*4 FrameData[12]
*5 FrameData[13]
*6 FrameData[14]
*7 FrameData[15]
*8 FrameData[16]
*9 FrameData[17]
*10 FrameData[18]
*11 FrameData[19]
*12 FrameData[1]
*13 FrameData[20]
*14 FrameData[21]
*15 FrameData[22]
*16 FrameData[23]
*17 FrameData[24]
*18 FrameData[25]
*19 FrameData[26]
*20 FrameData[27]
*21 FrameData[28]
*22 FrameData[29]
*23 FrameData[2]
*24 FrameData[30]
*25 FrameData[31]
*26 FrameData[3]
*27 FrameData[4]
*28 FrameData[5]
*29 FrameData[6]
*30 FrameData[7]
*31 FrameData[8]
*32 FrameData[9]
*33 FrameData_O[0]
*34 FrameData_O[10]
*35 FrameData_O[11]
*36 FrameData_O[12]
*37 FrameData_O[13]
*38 FrameData_O[14]
*39 FrameData_O[15]
*40 FrameData_O[16]
*41 FrameData_O[17]
*42 FrameData_O[18]
*43 FrameData_O[19]
*44 FrameData_O[1]
*45 FrameData_O[20]
*46 FrameData_O[21]
*47 FrameData_O[22]
*48 FrameData_O[23]
*49 FrameData_O[24]
*50 FrameData_O[25]
*51 FrameData_O[26]
*52 FrameData_O[27]
*53 FrameData_O[28]
*54 FrameData_O[29]
*55 FrameData_O[2]
*56 FrameData_O[30]
*57 FrameData_O[31]
*58 FrameData_O[3]
*59 FrameData_O[4]
*60 FrameData_O[5]
*61 FrameData_O[6]
*62 FrameData_O[7]
*63 FrameData_O[8]
*64 FrameData_O[9]
*65 FrameStrobe[0]
*66 FrameStrobe[10]
*67 FrameStrobe[11]
*68 FrameStrobe[12]
*69 FrameStrobe[13]
*70 FrameStrobe[14]
*71 FrameStrobe[15]
*72 FrameStrobe[16]
*73 FrameStrobe[17]
*74 FrameStrobe[18]
*75 FrameStrobe[19]
*76 FrameStrobe[1]
*77 FrameStrobe[2]
*78 FrameStrobe[3]
*79 FrameStrobe[4]
*80 FrameStrobe[5]
*81 FrameStrobe[6]
*82 FrameStrobe[7]
*83 FrameStrobe[8]
*84 FrameStrobe[9]
*85 FrameStrobe_O[0]
*86 FrameStrobe_O[10]
*87 FrameStrobe_O[11]
*88 FrameStrobe_O[12]
*89 FrameStrobe_O[13]
*90 FrameStrobe_O[14]
*91 FrameStrobe_O[15]
*92 FrameStrobe_O[16]
*93 FrameStrobe_O[17]
*94 FrameStrobe_O[18]
*95 FrameStrobe_O[19]
*96 FrameStrobe_O[1]
*97 FrameStrobe_O[2]
*98 FrameStrobe_O[3]
*99 FrameStrobe_O[4]
*100 FrameStrobe_O[5]
*101 FrameStrobe_O[6]
*102 FrameStrobe_O[7]
*103 FrameStrobe_O[8]
*104 FrameStrobe_O[9]
*105 N1END[0]
*106 N1END[1]
*107 N1END[2]
*108 N1END[3]
*109 N2END[0]
*110 N2END[1]
*111 N2END[2]
*112 N2END[3]
*113 N2END[4]
*114 N2END[5]
*115 N2END[6]
*116 N2END[7]
*117 N2MID[0]
*118 N2MID[1]
*119 N2MID[2]
*120 N2MID[3]
*121 N2MID[4]
*122 N2MID[5]
*123 N2MID[6]
*124 N2MID[7]
*125 N4END[0]
*126 N4END[10]
*127 N4END[11]
*128 N4END[12]
*129 N4END[13]
*130 N4END[14]
*131 N4END[15]
*132 N4END[1]
*133 N4END[2]
*134 N4END[3]
*135 N4END[4]
*136 N4END[5]
*137 N4END[6]
*138 N4END[7]
*139 N4END[8]
*140 N4END[9]
*141 S1BEG[0]
*142 S1BEG[1]
*143 S1BEG[2]
*144 S1BEG[3]
*145 S2BEG[0]
*146 S2BEG[1]
*147 S2BEG[2]
*148 S2BEG[3]
*149 S2BEG[4]
*150 S2BEG[5]
*151 S2BEG[6]
*152 S2BEG[7]
*153 S2BEGb[0]
*154 S2BEGb[1]
*155 S2BEGb[2]
*156 S2BEGb[3]
*157 S2BEGb[4]
*158 S2BEGb[5]
*159 S2BEGb[6]
*160 S2BEGb[7]
*161 S4BEG[0]
*162 S4BEG[10]
*163 S4BEG[11]
*164 S4BEG[12]
*165 S4BEG[13]
*166 S4BEG[14]
*167 S4BEG[15]
*168 S4BEG[1]
*169 S4BEG[2]
*170 S4BEG[3]
*171 S4BEG[4]
*172 S4BEG[5]
*173 S4BEG[6]
*174 S4BEG[7]
*175 S4BEG[8]
*176 S4BEG[9]
*177 UserCLK
*178 UserCLKo
*179 FILLER_0_0
*180 FILLER_0_105
*181 FILLER_0_112
*182 FILLER_0_119
*183 FILLER_0_126
*184 FILLER_0_133
*185 FILLER_0_14
*186 FILLER_0_140
*187 FILLER_0_147
*188 FILLER_0_154
*189 FILLER_0_161
*190 FILLER_0_172
*191 FILLER_0_179
*192 FILLER_0_186
*193 FILLER_0_193
*194 FILLER_0_21
*195 FILLER_0_28
*196 FILLER_0_35
*197 FILLER_0_42
*198 FILLER_0_49
*199 FILLER_0_56
*200 FILLER_0_63
*201 FILLER_0_7
*202 FILLER_0_70
*203 FILLER_0_77
*204 FILLER_0_84
*205 FILLER_0_91
*206 FILLER_0_98
*207 FILLER_10_0
*208 FILLER_10_100
*209 FILLER_10_116
*210 FILLER_10_127
*211 FILLER_10_138
*212 FILLER_10_145
*213 FILLER_10_147
*214 FILLER_10_15
*215 FILLER_10_152
*216 FILLER_10_154
*217 FILLER_10_167
*218 FILLER_10_175
*219 FILLER_10_181
*220 FILLER_10_197
*221 FILLER_10_199
*222 FILLER_10_2
*223 FILLER_10_22
*224 FILLER_10_31
*225 FILLER_10_35
*226 FILLER_10_41
*227 FILLER_10_45
*228 FILLER_10_51
*229 FILLER_10_55
*230 FILLER_10_60
*231 FILLER_10_67
*232 FILLER_10_73
*233 FILLER_10_77
*234 FILLER_10_83
*235 FILLER_10_89
*236 FILLER_11_0
*237 FILLER_11_105
*238 FILLER_11_112
*239 FILLER_11_119
*240 FILLER_11_126
*241 FILLER_11_133
*242 FILLER_11_14
*243 FILLER_11_140
*244 FILLER_11_147
*245 FILLER_11_154
*246 FILLER_11_161
*247 FILLER_11_168
*248 FILLER_11_175
*249 FILLER_11_182
*250 FILLER_11_189
*251 FILLER_11_196
*252 FILLER_11_21
*253 FILLER_11_28
*254 FILLER_11_35
*255 FILLER_11_42
*256 FILLER_11_49
*257 FILLER_11_56
*258 FILLER_11_63
*259 FILLER_11_7
*260 FILLER_11_70
*261 FILLER_11_77
*262 FILLER_11_84
*263 FILLER_11_91
*264 FILLER_11_98
*265 FILLER_1_0
*266 FILLER_1_116
*267 FILLER_1_120
*268 FILLER_1_137
*269 FILLER_1_143
*270 FILLER_1_150
*271 FILLER_1_152
*272 FILLER_1_157
*273 FILLER_1_176
*274 FILLER_1_183
*275 FILLER_1_19
*276 FILLER_1_197
*277 FILLER_1_199
*278 FILLER_1_38
*279 FILLER_1_40
*280 FILLER_1_45
*281 FILLER_1_50
*282 FILLER_1_55
*283 FILLER_1_79
*284 FILLER_1_86
*285 FILLER_1_90
*286 FILLER_1_99
*287 FILLER_2_0
*288 FILLER_2_106
*289 FILLER_2_11
*290 FILLER_2_113
*291 FILLER_2_120
*292 FILLER_2_127
*293 FILLER_2_134
*294 FILLER_2_141
*295 FILLER_2_15
*296 FILLER_2_151
*297 FILLER_2_157
*298 FILLER_2_164
*299 FILLER_2_172
*300 FILLER_2_179
*301 FILLER_2_186
*302 FILLER_2_193
*303 FILLER_2_20
*304 FILLER_2_28
*305 FILLER_2_35
*306 FILLER_2_42
*307 FILLER_2_49
*308 FILLER_2_56
*309 FILLER_2_61
*310 FILLER_2_68
*311 FILLER_2_75
*312 FILLER_2_77
*313 FILLER_2_82
*314 FILLER_2_86
*315 FILLER_2_92
*316 FILLER_2_99
*317 FILLER_3_0
*318 FILLER_3_102
*319 FILLER_3_109
*320 FILLER_3_11
*321 FILLER_3_116
*322 FILLER_3_123
*323 FILLER_3_130
*324 FILLER_3_137
*325 FILLER_3_144
*326 FILLER_3_151
*327 FILLER_3_158
*328 FILLER_3_165
*329 FILLER_3_172
*330 FILLER_3_179
*331 FILLER_3_18
*332 FILLER_3_186
*333 FILLER_3_192
*334 FILLER_3_199
*335 FILLER_3_25
*336 FILLER_3_32
*337 FILLER_3_39
*338 FILLER_3_46
*339 FILLER_3_53
*340 FILLER_3_60
*341 FILLER_3_67
*342 FILLER_3_74
*343 FILLER_3_81
*344 FILLER_3_88
*345 FILLER_3_95
*346 FILLER_4_0
*347 FILLER_4_102
*348 FILLER_4_109
*349 FILLER_4_11
*350 FILLER_4_116
*351 FILLER_4_123
*352 FILLER_4_130
*353 FILLER_4_137
*354 FILLER_4_144
*355 FILLER_4_151
*356 FILLER_4_158
*357 FILLER_4_165
*358 FILLER_4_172
*359 FILLER_4_179
*360 FILLER_4_18
*361 FILLER_4_195
*362 FILLER_4_199
*363 FILLER_4_25
*364 FILLER_4_32
*365 FILLER_4_39
*366 FILLER_4_46
*367 FILLER_4_53
*368 FILLER_4_60
*369 FILLER_4_67
*370 FILLER_4_74
*371 FILLER_4_81
*372 FILLER_4_88
*373 FILLER_4_95
*374 FILLER_5_0
*375 FILLER_5_102
*376 FILLER_5_109
*377 FILLER_5_11
*378 FILLER_5_116
*379 FILLER_5_123
*380 FILLER_5_130
*381 FILLER_5_137
*382 FILLER_5_144
*383 FILLER_5_151
*384 FILLER_5_158
*385 FILLER_5_160
*386 FILLER_5_165
*387 FILLER_5_171
*388 FILLER_5_178
*389 FILLER_5_18
*390 FILLER_5_185
*391 FILLER_5_192
*392 FILLER_5_199
*393 FILLER_5_25
*394 FILLER_5_32
*395 FILLER_5_39
*396 FILLER_5_46
*397 FILLER_5_53
*398 FILLER_5_60
*399 FILLER_5_67
*400 FILLER_5_74
*401 FILLER_5_81
*402 FILLER_5_88
*403 FILLER_5_95
*404 FILLER_6_0
*405 FILLER_6_102
*406 FILLER_6_109
*407 FILLER_6_11
*408 FILLER_6_116
*409 FILLER_6_123
*410 FILLER_6_130
*411 FILLER_6_137
*412 FILLER_6_144
*413 FILLER_6_151
*414 FILLER_6_158
*415 FILLER_6_165
*416 FILLER_6_172
*417 FILLER_6_179
*418 FILLER_6_18
*419 FILLER_6_186
*420 FILLER_6_191
*421 FILLER_6_198
*422 FILLER_6_25
*423 FILLER_6_32
*424 FILLER_6_39
*425 FILLER_6_46
*426 FILLER_6_53
*427 FILLER_6_60
*428 FILLER_6_67
*429 FILLER_6_74
*430 FILLER_6_81
*431 FILLER_6_88
*432 FILLER_6_95
*433 FILLER_7_0
*434 FILLER_7_102
*435 FILLER_7_109
*436 FILLER_7_116
*437 FILLER_7_123
*438 FILLER_7_130
*439 FILLER_7_137
*440 FILLER_7_144
*441 FILLER_7_151
*442 FILLER_7_158
*443 FILLER_7_165
*444 FILLER_7_172
*445 FILLER_7_178
*446 FILLER_7_18
*447 FILLER_7_185
*448 FILLER_7_187
*449 FILLER_7_196
*450 FILLER_7_25
*451 FILLER_7_32
*452 FILLER_7_39
*453 FILLER_7_4
*454 FILLER_7_46
*455 FILLER_7_53
*456 FILLER_7_60
*457 FILLER_7_67
*458 FILLER_7_74
*459 FILLER_7_81
*460 FILLER_7_88
*461 FILLER_7_95
*462 FILLER_8_0
*463 FILLER_8_105
*464 FILLER_8_112
*465 FILLER_8_119
*466 FILLER_8_126
*467 FILLER_8_133
*468 FILLER_8_14
*469 FILLER_8_140
*470 FILLER_8_147
*471 FILLER_8_154
*472 FILLER_8_161
*473 FILLER_8_168
*474 FILLER_8_175
*475 FILLER_8_182
*476 FILLER_8_186
*477 FILLER_8_192
*478 FILLER_8_199
*479 FILLER_8_21
*480 FILLER_8_28
*481 FILLER_8_35
*482 FILLER_8_42
*483 FILLER_8_49
*484 FILLER_8_56
*485 FILLER_8_63
*486 FILLER_8_7
*487 FILLER_8_70
*488 FILLER_8_77
*489 FILLER_8_84
*490 FILLER_8_91
*491 FILLER_8_98
*492 FILLER_9_0
*493 FILLER_9_105
*494 FILLER_9_112
*495 FILLER_9_119
*496 FILLER_9_126
*497 FILLER_9_128
*498 FILLER_9_133
*499 FILLER_9_14
*500 FILLER_9_140
*501 FILLER_9_147
*502 FILLER_9_154
*503 FILLER_9_161
*504 FILLER_9_168
*505 FILLER_9_175
*506 FILLER_9_182
*507 FILLER_9_189
*508 FILLER_9_196
*509 FILLER_9_21
*510 FILLER_9_28
*511 FILLER_9_35
*512 FILLER_9_42
*513 FILLER_9_49
*514 FILLER_9_56
*515 FILLER_9_63
*516 FILLER_9_7
*517 FILLER_9_70
*518 FILLER_9_77
*519 FILLER_9_84
*520 FILLER_9_9
*521 FILLER_9_91
*522 FILLER_9_98
*523 _00_
*524 _01_
*525 _02_
*526 _03_
*527 _04_
*528 _05_
*529 _06_
*530 _07_
*531 _08_
*532 _09_
*533 _10_
*534 _11_
*535 _12_
*536 _13_
*537 _14_
*538 _15_
*539 _16_
*540 _17_
*541 _18_
*542 _19_
*543 _20_
*544 _21_
*545 _22_
*546 _23_
*547 _24_
*548 _25_
*549 _26_
*550 _27_
*551 _28_
*552 _29_
*553 _30_
*554 _31_
*555 _32_
*556 _33_
*557 _34_
*558 _35_
*559 _36_
*560 _37_
*561 _38_
*562 _39_
*563 _40_
*564 _41_
*565 _42_
*566 _43_
*567 _44_
*568 _45_
*569 _46_
*570 _47_
*571 _48_
*572 _49_
*573 _50_
*574 _51_
*575 _52_
*576 _53_
*577 _54_
*578 _55_
*579 _56_
*580 _57_
*581 _58_
*582 _59_
*583 _60_
*584 _61_
*585 _62_
*586 _63_
*587 _64_
*588 _65_
*589 _66_
*590 _67_
*591 _68_
*592 _69_
*593 _70_
*594 _71_
*595 _72_
*596 _73_
*597 _74_
*598 _75_
*599 _76_
*600 _77_
*601 _78_
*602 _79_
*603 _80_
*604 _81_
*605 _82_
*606 _83_
*607 _84_
*608 _85_
*609 _86_
*610 _87_
*611 _88_

*PORTS
FrameData[0] I
FrameData[10] I
FrameData[11] I
FrameData[12] I
FrameData[13] I
FrameData[14] I
FrameData[15] I
FrameData[16] I
FrameData[17] I
FrameData[18] I
FrameData[19] I
FrameData[1] I
FrameData[20] I
FrameData[21] I
FrameData[22] I
FrameData[23] I
FrameData[24] I
FrameData[25] I
FrameData[26] I
FrameData[27] I
FrameData[28] I
FrameData[29] I
FrameData[2] I
FrameData[30] I
FrameData[31] I
FrameData[3] I
FrameData[4] I
FrameData[5] I
FrameData[6] I
FrameData[7] I
FrameData[8] I
FrameData[9] I
FrameData_O[0] O
FrameData_O[10] O
FrameData_O[11] O
FrameData_O[12] O
FrameData_O[13] O
FrameData_O[14] O
FrameData_O[15] O
FrameData_O[16] O
FrameData_O[17] O
FrameData_O[18] O
FrameData_O[19] O
FrameData_O[1] O
FrameData_O[20] O
FrameData_O[21] O
FrameData_O[22] O
FrameData_O[23] O
FrameData_O[24] O
FrameData_O[25] O
FrameData_O[26] O
FrameData_O[27] O
FrameData_O[28] O
FrameData_O[29] O
FrameData_O[2] O
FrameData_O[30] O
FrameData_O[31] O
FrameData_O[3] O
FrameData_O[4] O
FrameData_O[5] O
FrameData_O[6] O
FrameData_O[7] O
FrameData_O[8] O
FrameData_O[9] O
FrameStrobe[0] I
FrameStrobe[10] I
FrameStrobe[11] I
FrameStrobe[12] I
FrameStrobe[13] I
FrameStrobe[14] I
FrameStrobe[15] I
FrameStrobe[16] I
FrameStrobe[17] I
FrameStrobe[18] I
FrameStrobe[19] I
FrameStrobe[1] I
FrameStrobe[2] I
FrameStrobe[3] I
FrameStrobe[4] I
FrameStrobe[5] I
FrameStrobe[6] I
FrameStrobe[7] I
FrameStrobe[8] I
FrameStrobe[9] I
FrameStrobe_O[0] O
FrameStrobe_O[10] O
FrameStrobe_O[11] O
FrameStrobe_O[12] O
FrameStrobe_O[13] O
FrameStrobe_O[14] O
FrameStrobe_O[15] O
FrameStrobe_O[16] O
FrameStrobe_O[17] O
FrameStrobe_O[18] O
FrameStrobe_O[19] O
FrameStrobe_O[1] O
FrameStrobe_O[2] O
FrameStrobe_O[3] O
FrameStrobe_O[4] O
FrameStrobe_O[5] O
FrameStrobe_O[6] O
FrameStrobe_O[7] O
FrameStrobe_O[8] O
FrameStrobe_O[9] O
N1END[0] I
N1END[1] I
N1END[2] I
N1END[3] I
N2END[0] I
N2END[1] I
N2END[2] I
N2END[3] I
N2END[4] I
N2END[5] I
N2END[6] I
N2END[7] I
N2MID[0] I
N2MID[1] I
N2MID[2] I
N2MID[3] I
N2MID[4] I
N2MID[5] I
N2MID[6] I
N2MID[7] I
N4END[0] I
N4END[10] I
N4END[11] I
N4END[12] I
N4END[13] I
N4END[14] I
N4END[15] I
N4END[1] I
N4END[2] I
N4END[3] I
N4END[4] I
N4END[5] I
N4END[6] I
N4END[7] I
N4END[8] I
N4END[9] I
S1BEG[0] O
S1BEG[1] O
S1BEG[2] O
S1BEG[3] O
S2BEG[0] O
S2BEG[1] O
S2BEG[2] O
S2BEG[3] O
S2BEG[4] O
S2BEG[5] O
S2BEG[6] O
S2BEG[7] O
S2BEGb[0] O
S2BEGb[1] O
S2BEGb[2] O
S2BEGb[3] O
S2BEGb[4] O
S2BEGb[5] O
S2BEGb[6] O
S2BEGb[7] O
S4BEG[0] O
S4BEG[10] O
S4BEG[11] O
S4BEG[12] O
S4BEG[13] O
S4BEG[14] O
S4BEG[15] O
S4BEG[1] O
S4BEG[2] O
S4BEG[3] O
S4BEG[4] O
S4BEG[5] O
S4BEG[6] O
S4BEG[7] O
S4BEG[8] O
S4BEG[9] O
UserCLK I
UserCLKo O

*D_NET *1 0.0159713
*CONN
*P FrameData[0] I
*I *523:A I *D sg13g2_buf_1
*CAP
1 FrameData[0] 0.00101738
2 *523:A 8.54224e-05
3 *1:21 0.00110532
4 *1:13 0.00249581
5 *1:9 0.00249329
6 *523:A *33:12 7.94462e-05
7 *523:A *59:12 0
8 *523:A *83:13 0.000143981
9 *1:9 *12:9 0
10 *1:13 *12:13 0.00478371
11 *1:13 *23:17 0
12 *1:13 *26:13 0
13 *1:13 *136:15 0.00376695
14 *1:21 *12:19 0
15 *1:21 *67:13 0
*RES
1 FrameData[0] *1:9 31.2682 
2 *1:9 *1:13 47.7894 
3 *1:13 *1:21 49.7232 
4 *1:21 *523:A 40.9682 
*END

*D_NET *2 0.0135213
*CONN
*P FrameData[10] I
*I *533:A I *D sg13g2_buf_1
*CAP
1 FrameData[10] 0.0019964
2 *533:A 0
3 *2:13 0.00189877
4 *2:9 0.00389517
5 *2:9 S1BEG[2] 0
6 *2:9 S2BEG[5] 0
7 *2:9 *3:11 0
8 *2:9 *32:11 0
9 *2:9 *138:9 0
10 *2:9 *152:10 0
11 *2:13 *32:13 0.00573096
12 *2:13 *38:12 0
*RES
1 FrameData[10] *2:9 40.291 
2 *2:9 *2:13 46.5534 
3 *2:13 *533:A 40 
*END

*D_NET *3 0.0192957
*CONN
*P FrameData[11] I
*I *534:A I *D sg13g2_buf_1
*CAP
1 FrameData[11] 0.000939449
2 *534:A 0.000201609
3 *3:13 0.00216314
4 *3:11 0.00290097
5 *534:A *572:A 0
6 *534:A *35:8 0
7 *534:A *81:15 0
8 *3:11 S1BEG[2] 0
9 *3:11 *4:5 0
10 *3:13 *4:5 0
11 *3:13 *5:9 0.00612231
12 *3:13 *177:9 0.00696826
13 *2:9 *3:11 0
*RES
1 FrameData[11] *3:11 49.5069 
2 *3:11 *3:13 36.4414 
3 *3:13 *534:A 41.6171 
*END

*D_NET *4 0.0158874
*CONN
*P FrameData[12] I
*I *535:A I *D sg13g2_buf_1
*CAP
1 FrameData[12] 0.00414075
2 *535:A 2.50478e-05
3 *4:5 0.0041658
4 *4:5 FrameData_O[10] 0
5 *4:5 FrameData_O[11] 0
6 *4:5 S1BEG[2] 0
7 *4:5 *5:9 0
8 *4:5 *68:9 0
9 *4:5 *138:9 0
10 *4:5 *177:9 0.00755584
11 *4:5 *178:8 0
12 *3:11 *4:5 0
13 *3:13 *4:5 0
*RES
1 FrameData[12] *4:5 50.3773 
2 *4:5 *535:A 40.3193 
*END

*D_NET *5 0.0149926
*CONN
*P FrameData[13] I
*I *536:A I *D sg13g2_buf_1
*CAP
1 FrameData[13] 0.00412917
2 *536:A 5.49784e-05
3 *5:9 0.00418414
4 *536:A *532:A 0
5 *536:A *574:A 0
6 *5:9 *537:A 0
7 *5:9 *32:13 0
8 *5:9 *38:12 0
9 *5:9 *177:9 0
10 *5:9 *178:8 0.000501961
11 *3:13 *5:9 0.00612231
12 *4:5 *5:9 0
*RES
1 FrameData[13] *5:9 49.8108 
2 *5:9 *536:A 40.5356 
*END

*D_NET *6 0.0010126
*CONN
*P FrameData[14] I
*I *537:A I *D sg13g2_buf_1
*CAP
1 FrameData[14] 0.0005063
2 *537:A 0.0005063
3 *537:A *538:A 0
4 *537:A *32:13 0
5 *5:9 *537:A 0
*RES
1 FrameData[14] *537:A 45.2118 
*END

*D_NET *7 0.00128371
*CONN
*P FrameData[15] I
*I *538:A I *D sg13g2_buf_1
*CAP
1 FrameData[15] 0.000641853
2 *538:A 0.000641853
3 *538:A UserCLKo 0
4 *538:A *8:9 0
5 *538:A *32:13 0
6 *538:A *39:10 0
7 *537:A *538:A 0
*RES
1 FrameData[15] *538:A 46.5096 
*END

*D_NET *8 0.0136649
*CONN
*P FrameData[16] I
*I *539:A I *D sg13g2_buf_1
*CAP
1 FrameData[16] 0.00442811
2 *539:A 0.000101965
3 *8:9 0.00453008
4 *539:A *574:A 0
5 *8:9 *9:5 0
6 *8:9 *32:13 0
7 *8:9 *38:12 0
8 *8:9 *39:18 0.00460473
9 *8:9 *81:19 0
10 *538:A *8:9 0
*RES
1 FrameData[16] *8:9 49.8108 
2 *8:9 *539:A 40.9682 
*END

*D_NET *9 0.019066
*CONN
*P FrameData[17] I
*I *540:A I *D sg13g2_buf_1
*CAP
1 FrameData[17] 0.00270521
2 *540:A 0
3 *9:13 0.000701414
4 *9:5 0.00340663
5 *9:5 FrameData_O[18] 0
6 *9:5 *541:A 0
7 *9:5 *11:5 0
8 *9:5 *39:18 0
9 *9:5 *42:10 0
10 *9:5 *65:9 0
11 *9:5 *78:17 0.00503665
12 *9:5 *79:11 0.00535683
13 *9:13 FrameData_O[18] 0
14 *9:13 *11:5 0.00157021
15 *9:13 *70:13 0.000241282
16 *9:13 *71:21 0
17 *9:13 *78:11 4.77425e-05
18 *8:9 *9:5 0
*RES
1 FrameData[17] *9:5 42.2197 
2 *9:5 *9:13 49.1361 
3 *9:13 *540:A 40 
*END

*D_NET *10 0.000987973
*CONN
*P FrameData[18] I
*I *541:A I *D sg13g2_buf_1
*CAP
1 FrameData[18] 0.000493986
2 *541:A 0.000493986
3 *541:A UserCLKo 0
4 *541:A *543:A 0
5 *541:A *11:5 0
6 *9:5 *541:A 0
*RES
1 FrameData[18] *541:A 45.3972 
*END

*D_NET *11 0.0175772
*CONN
*P FrameData[19] I
*I *542:A I *D sg13g2_buf_1
*CAP
1 FrameData[19] 0.00340311
2 *542:A 0.000265395
3 *11:5 0.00366851
4 *542:A FrameData_O[21] 0
5 *542:A *574:A 0
6 *11:5 FrameData_O[18] 0
7 *11:5 *543:A 0
8 *11:5 *544:A 0
9 *11:5 *42:10 0
10 *11:5 *45:16 0
11 *11:5 *46:10 0.00867002
12 *541:A *11:5 0
13 *9:5 *11:5 0
14 *9:13 *11:5 0.00157021
*RES
1 FrameData[19] *11:5 49.3885 
2 *11:5 *542:A 42.3999 
*END

*D_NET *12 0.0133229
*CONN
*P FrameData[1] I
*I *524:A I *D sg13g2_buf_1
*CAP
1 FrameData[1] 0.00160137
2 *524:A 0.000134615
3 *12:19 0.000969035
4 *12:13 0.00216505
5 *12:9 0.002932
6 *524:A *81:15 0.00024064
7 *524:A *84:13 0.00024064
8 *12:9 S2BEG[2] 0
9 *12:9 *23:11 0
10 *12:9 *26:9 0
11 *12:9 *114:9 0.000180962
12 *12:9 *115:9 7.48842e-05
13 *12:9 *124:9 0
14 *12:13 *23:17 0
15 *12:13 *159:14 0
16 *12:19 *67:13 0
17 *1:9 *12:9 0
18 *1:13 *12:13 0.00478371
19 *1:21 *12:19 0
*RES
1 FrameData[1] *12:9 36.0577 
2 *12:9 *12:13 42.1038 
3 *12:13 *12:19 48.0134 
4 *12:19 *524:A 41.6171 
*END

*D_NET *13 0.00129284
*CONN
*P FrameData[20] I
*I *543:A I *D sg13g2_buf_1
*CAP
1 FrameData[20] 0.000646422
2 *543:A 0.000646422
3 *543:A *544:A 0
4 *543:A *45:8 0
5 *541:A *543:A 0
6 *11:5 *543:A 0
*RES
1 FrameData[20] *543:A 46.7306 
*END

*D_NET *14 0.00164291
*CONN
*P FrameData[21] I
*I *544:A I *D sg13g2_buf_1
*CAP
1 FrameData[21] 0.000821453
2 *544:A 0.000821453
3 *544:A *555:A 0
4 *544:A *15:5 0
5 *544:A *45:8 0
6 *543:A *544:A 0
7 *11:5 *544:A 0
*RES
1 FrameData[21] *544:A 47.9334 
*END

*D_NET *15 0.0113755
*CONN
*P FrameData[22] I
*I *545:A I *D sg13g2_buf_1
*CAP
1 FrameData[22] 0.00493016
2 *545:A 0.000346286
3 *15:5 0.00527644
4 *545:A FrameData_O[19] 0
5 *545:A FrameData_O[22] 0
6 *545:A *573:A 0
7 *545:A *574:A 0
8 *15:5 FrameData_O[21] 0
9 *15:5 FrameData_O[23] 0
10 *15:5 *546:A 0
11 *15:5 *25:13 0
12 *15:5 *45:16 0
13 *15:5 *48:14 0
14 *15:5 *76:11 0
15 *15:5 *77:11 0
16 *15:5 *78:25 0.000822642
17 *544:A *15:5 0
*RES
1 FrameData[22] *15:5 50.6245 
2 *15:5 *545:A 42.9149 
*END

*D_NET *16 0.00122505
*CONN
*P FrameData[23] I
*I *546:A I *D sg13g2_buf_1
*CAP
1 FrameData[23] 0.000612524
2 *546:A 0.000612524
3 *546:A *17:5 0
4 *546:A *25:13 0
5 *15:5 *546:A 0
*RES
1 FrameData[23] *546:A 45.9534 
*END

*D_NET *17 0.0116332
*CONN
*P FrameData[24] I
*I *547:A I *D sg13g2_buf_1
*CAP
1 FrameData[24] 0.00527446
2 *547:A 0.000542133
3 *17:5 0.0058166
4 *547:A *572:A 0
5 *547:A *49:8 0
6 *17:5 *18:9 0
7 *17:5 *25:13 0
8 *17:5 *53:10 0
9 *17:5 *54:10 0
10 *17:5 *54:18 0
11 *546:A *17:5 0
*RES
1 FrameData[24] *17:5 46.1749 
2 *17:5 *547:A 44.6453 
*END

*D_NET *18 0.00911351
*CONN
*P FrameData[25] I
*I *548:A I *D sg13g2_buf_1
*CAP
1 FrameData[25] 0.00384137
2 *548:A 0.000158168
3 *18:9 0.00399954
4 *548:A *67:21 0
5 *548:A *68:13 0
6 *18:9 *19:9 0
7 *18:9 *53:8 1.55212e-05
8 *18:9 *53:10 0
9 *18:9 *54:10 0.00109891
10 *18:9 *85:10 0
11 *17:5 *18:9 0
*RES
1 FrameData[25] *18:9 35.4732 
2 *18:9 *548:A 41.4008 
*END

*D_NET *19 0.0121418
*CONN
*P FrameData[26] I
*I *549:A I *D sg13g2_buf_1
*CAP
1 FrameData[26] 0.00442024
2 *549:A 5.13004e-05
3 *19:9 0.00447154
4 *549:A FrameStrobe_O[17] 0
5 *549:A *572:A 0
6 *19:9 FrameData_O[27] 0
7 *19:9 *20:7 0
8 *19:9 *54:18 0
9 *19:9 *85:10 0
10 *19:9 *87:8 0.000289003
11 *19:9 *88:8 0.00034245
12 *19:9 *89:8 0.000556238
13 *19:9 *96:10 0.000501055
14 *19:9 *98:10 0.000502702
15 *19:9 *99:10 0.000162067
16 *19:9 *100:10 0
17 *19:9 *102:8 0.000395897
18 *19:9 *103:8 0.000449344
19 *19:9 *104:10 0
20 *18:9 *19:9 0
*RES
1 FrameData[26] *19:9 47.3388 
2 *19:9 *549:A 40.5356 
*END

*D_NET *20 0.00558368
*CONN
*P FrameData[27] I
*I *550:A I *D sg13g2_buf_1
*CAP
1 FrameData[27] 0.00264614
2 *550:A 0.0001457
3 *20:7 0.00279184
4 *550:A FrameStrobe_O[9] 0
5 *550:A *52:8 0
6 *20:7 *551:A 0
7 *20:7 *101:10 0
8 *19:9 *20:7 0
*RES
1 FrameData[27] *20:7 48.8709 
2 *20:7 *550:A 21.1845 
*END

*D_NET *21 0.00159629
*CONN
*P FrameData[28] I
*I *551:A I *D sg13g2_buf_1
*CAP
1 FrameData[28] 0.000645091
2 *551:A 0.000645091
3 *551:A FrameStrobe_O[0] 0.000306108
4 *551:A *552:A 0
5 *551:A *553:A 0
6 *20:7 *551:A 0
*RES
1 FrameData[28] *551:A 46.9422 
*END

*D_NET *22 0.00131142
*CONN
*P FrameData[29] I
*I *552:A I *D sg13g2_buf_1
*CAP
1 FrameData[29] 0.000655711
2 *552:A 0.000655711
3 *552:A FrameStrobe_O[0] 0
4 *552:A UserCLKo 0
5 *552:A *553:A 0
6 *551:A *552:A 0
*RES
1 FrameData[29] *552:A 46.8186 
*END

*D_NET *23 0.014979
*CONN
*P FrameData[2] I
*I *525:A I *D sg13g2_buf_1
*CAP
1 FrameData[2] 0.000635918
2 *525:A 0
3 *23:21 0
4 *23:17 0.00266679
5 *23:11 0.00330271
6 *23:11 *26:9 0
7 *23:17 *28:13 0.000789442
8 *23:17 *29:11 0
9 *23:17 *125:23 0.00451119
10 *23:17 *159:14 0.00307298
11 *1:13 *23:17 0
12 *12:9 *23:11 0
13 *12:13 *23:17 0
*RES
1 FrameData[2] *23:11 47.0967 
2 *23:11 *23:17 41.8077 
3 *23:17 *23:21 40 
4 *23:21 *525:A 40 
*END

*D_NET *24 0.00180036
*CONN
*P FrameData[30] I
*I *553:A I *D sg13g2_buf_1
*CAP
1 FrameData[30] 0.000900179
2 *553:A 0.000900179
3 *553:A FrameStrobe_O[0] 0
4 *553:A FrameStrobe_O[1] 0
5 *553:A *25:11 0
6 *551:A *553:A 0
7 *552:A *553:A 0
*RES
1 FrameData[30] *553:A 49.6614 
*END

*D_NET *25 0.0156416
*CONN
*P FrameData[31] I
*I *554:A I *D sg13g2_buf_1
*CAP
1 FrameData[31] 0.00074809
2 *554:A 0.000196424
3 *25:13 0.00539126
4 *25:11 0.00594293
5 *554:A *573:A 0
6 *554:A *574:A 0.000305706
7 *25:11 UserCLKo 0
8 *25:13 FrameData_O[24] 0
9 *25:13 *48:14 0
10 *25:13 *50:10 0
11 *25:13 *50:20 0.00239525
12 *25:13 *76:21 0.000661903
13 *546:A *25:13 0
14 *553:A *25:11 0
15 *15:5 *25:13 0
16 *17:5 *25:13 0
*RES
1 FrameData[31] *25:11 48.0237 
2 *25:11 *25:13 48.5542 
3 *25:13 *554:A 42.0497 
*END

*D_NET *26 0.013618
*CONN
*P FrameData[3] I
*I *526:A I *D sg13g2_buf_1
*CAP
1 FrameData[3] 0.00168005
2 *526:A 0.000133813
3 *26:19 0.000512856
4 *26:13 0.00237795
5 *26:9 0.00367896
6 *526:A *33:12 0.000240942
7 *526:A *83:13 0.000240942
8 *26:9 S1BEG[0] 0.00293941
9 *26:9 *27:17 0
10 *26:9 *123:13 0.000677338
11 *26:9 *136:11 0
12 *26:13 *135:13 0
13 *26:13 *136:15 0
14 *26:19 *66:9 0.00113577
15 *1:13 *26:13 0
16 *12:9 *26:9 0
17 *23:11 *26:9 0
*RES
1 FrameData[3] *26:9 40.6309 
2 *26:9 *26:13 40.3734 
3 *26:13 *26:19 45.2942 
4 *26:19 *526:A 41.6171 
*END

*D_NET *27 0.016204
*CONN
*P FrameData[4] I
*I *527:A I *D sg13g2_buf_1
*CAP
1 FrameData[4] 0.0020293
2 *527:A 0
3 *27:23 0.0019635
4 *27:17 0.0039928
5 *27:17 S1BEG[0] 0
6 *27:17 S2BEG[3] 0.000717595
7 *27:17 *579:A 0
8 *27:17 *599:A 0
9 *27:17 *28:9 0.000818821
10 *27:17 *110:13 0
11 *27:17 *121:13 0
12 *27:17 *137:9 0.000342145
13 *27:17 *138:9 0
14 *27:17 *149:8 0.000499563
15 *27:17 *153:8 1.54008e-05
16 *27:23 S1BEG[1] 0
17 *27:23 S2BEGb[7] 0
18 *27:23 *67:13 0
19 *27:23 *72:17 0
20 *27:23 *82:21 0.000181192
21 *27:23 *83:13 0
22 *27:23 *84:17 0
23 *27:23 *130:9 0.000768695
24 *27:23 *132:15 0.00487498
25 *26:9 *27:17 0
*RES
1 FrameData[4] *27:17 42.5261 
2 *27:17 *27:23 46.1311 
3 *27:23 *527:A 40 
*END

*D_NET *28 0.0173811
*CONN
*P FrameData[5] I
*I *528:A I *D sg13g2_buf_1
*CAP
1 FrameData[5] 0.00187575
2 *528:A 0
3 *28:21 0.000380549
4 *28:13 0.00233423
5 *28:9 0.00382944
6 *28:9 S1BEG[3] 0
7 *28:9 *29:9 0
8 *28:9 *105:11 0.000499492
9 *28:9 *109:15 0.00055726
10 *28:9 *116:11 0.00103216
11 *28:9 *128:29 0.00033974
12 *28:9 *137:9 0
13 *28:9 *146:8 0.000287256
14 *28:9 *149:8 0.000499577
15 *28:13 *29:11 0
16 *28:13 *125:23 0.00413737
17 *28:21 FrameData_O[4] 0
18 *28:21 *67:13 0
19 *23:17 *28:13 0.000789442
20 *27:17 *28:9 0.000818821
*RES
1 FrameData[5] *28:9 42.9793 
2 *28:9 *28:13 43.0926 
3 *28:13 *28:21 43.8831 
4 *28:21 *528:A 40 
*END

*D_NET *29 0.0103717
*CONN
*P FrameData[6] I
*I *529:A I *D sg13g2_buf_1
*CAP
1 FrameData[6] 0.000280262
2 *529:A 0
3 *29:17 7.05527e-05
4 *29:11 0.00490558
5 *29:9 0.00511529
6 *29:9 *30:9 0
7 *29:11 *30:11 0
8 *29:11 *125:23 0
9 *29:17 *30:17 0
10 *23:17 *29:11 0
11 *28:9 *29:9 0
12 *28:13 *29:11 0
*RES
1 FrameData[6] *29:9 43.1621 
2 *29:9 *29:11 47.8126 
3 *29:11 *29:17 40.7519 
4 *29:17 *529:A 40 
*END

*D_NET *30 0.00941074
*CONN
*P FrameData[7] I
*I *530:A I *D sg13g2_buf_1
*CAP
1 FrameData[7] 0.000280262
2 *530:A 0
3 *30:17 0.000152368
4 *30:11 0.00442511
5 *30:9 0.004553
6 *30:9 *31:9 0
7 *30:11 *31:11 0
8 *29:9 *30:9 0
9 *29:11 *30:11 0
10 *29:17 *30:17 0
*RES
1 FrameData[7] *30:9 43.1621 
2 *30:9 *30:11 46.8238 
3 *30:11 *30:17 41.6171 
4 *30:17 *530:A 40 
*END

*D_NET *31 0.00865194
*CONN
*P FrameData[8] I
*I *531:A I *D sg13g2_buf_1
*CAP
1 FrameData[8] 0.000280262
2 *531:A 0
3 *31:17 0.000147526
4 *31:11 0.00404571
5 *31:9 0.00417844
6 *31:9 *32:11 0
7 *30:9 *31:9 0
8 *30:11 *31:11 0
*RES
1 FrameData[8] *31:9 43.1621 
2 *31:9 *31:11 46.5766 
3 *31:11 *31:17 41.6171 
4 *31:17 *531:A 40 
*END

*D_NET *32 0.0176977
*CONN
*P FrameData[9] I
*I *532:A I *D sg13g2_buf_1
*CAP
1 FrameData[9] 0.000801065
2 *532:A 0.000244143
3 *32:13 0.00327759
4 *32:11 0.00383451
5 *532:A FrameData_O[13] 0
6 *532:A *572:A 0
7 *532:A *574:A 0
8 *32:11 UserCLKo 0
9 *32:11 *586:A 0
10 *32:13 *38:12 0
11 *32:13 *81:19 0
12 *32:13 *82:25 0.00380945
13 *536:A *532:A 0
14 *537:A *32:13 0
15 *538:A *32:13 0
16 *2:9 *32:11 0
17 *2:13 *32:13 0.00573096
18 *5:9 *32:13 0
19 *8:9 *32:13 0
20 *31:9 *32:11 0
*RES
1 FrameData[9] *32:11 48.0237 
2 *32:11 *32:13 45.0934 
3 *32:13 *532:A 42.3999 
*END

*D_NET *33 0.00351777
*CONN
*P FrameData_O[0] O
*I *523:X O *D sg13g2_buf_1
*CAP
1 FrameData_O[0] 0.00095331
2 *523:X 0.000428216
3 *33:12 0.00138153
4 FrameData_O[0] FrameData_O[1] 0
5 *33:12 *572:A 0
6 *33:12 *55:12 0
7 *33:12 *58:8 8.03692e-05
8 *33:12 *59:12 0
9 *33:12 *83:13 0.000112683
10 *33:12 *84:13 0.000241279
11 *523:A *33:12 7.94462e-05
12 *526:A *33:12 0.000240942
*RES
1 *523:X *33:12 44.6659 
2 *33:12 FrameData_O[0] 10.3309 
*END

*D_NET *34 0.00426448
*CONN
*P FrameData_O[10] O
*I *533:X O *D sg13g2_buf_1
*CAP
1 FrameData_O[10] 0.00100346
2 *533:X 0.000271312
3 *34:8 0.00127477
4 FrameData_O[10] FrameData_O[11] 0
5 FrameData_O[10] FrameData_O[9] 0
6 FrameData_O[10] *68:9 0.000714418
7 FrameData_O[10] *72:17 0
8 *34:8 *71:21 0.000500321
9 *34:8 *72:25 0.000500206
10 *4:5 FrameData_O[10] 0
*RES
1 *533:X *34:8 43.3475 
2 *34:8 FrameData_O[10] 11.8141 
*END

*D_NET *35 0.0025152
*CONN
*P FrameData_O[11] O
*I *534:X O *D sg13g2_buf_1
*CAP
1 FrameData_O[11] 0.00100628
2 *534:X 0.00025132
3 *35:8 0.0012576
4 FrameData_O[11] FrameData_O[12] 0
5 *35:8 *572:A 0
6 *35:8 *81:15 0
7 FrameData_O[10] FrameData_O[11] 0
8 *534:A *35:8 0
9 *4:5 FrameData_O[11] 0
*RES
1 *534:X *35:8 41.342 
2 *35:8 FrameData_O[11] 10.7532 
*END

*D_NET *36 0.000957631
*CONN
*P FrameData_O[12] O
*I *535:X O *D sg13g2_buf_1
*CAP
1 FrameData_O[12] 0.000478815
2 *535:X 0.000478815
3 FrameData_O[12] FrameData_O[13] 0
4 FrameData_O[12] *573:A 0
5 FrameData_O[12] *574:A 0
6 FrameData_O[11] FrameData_O[12] 0
*RES
1 *535:X FrameData_O[12] 44.9337 
*END

*D_NET *37 0.00129798
*CONN
*P FrameData_O[13] O
*I *536:X O *D sg13g2_buf_1
*CAP
1 FrameData_O[13] 0.000625251
2 *536:X 0.000625251
3 FrameData_O[13] FrameData_O[14] 0
4 FrameData_O[13] *574:A 4.74808e-05
5 FrameData_O[13] *38:12 0
6 FrameData_O[12] FrameData_O[13] 0
7 *532:A FrameData_O[13] 0
*RES
1 *536:X FrameData_O[13] 45.7062 
*END

*D_NET *38 0.0103286
*CONN
*P FrameData_O[14] O
*I *537:X O *D sg13g2_buf_1
*CAP
1 FrameData_O[14] 7.52775e-05
2 *537:X 0
3 *38:12 0.00516428
4 *38:6 0.005089
5 FrameData_O[14] FrameData_O[15] 0
6 *38:12 FrameData_O[15] 0
7 FrameData_O[13] FrameData_O[14] 0
8 FrameData_O[13] *38:12 0
9 *2:13 *38:12 0
10 *5:9 *38:12 0
11 *8:9 *38:12 0
12 *32:13 *38:12 0
*RES
1 *537:X *38:6 40 
2 *38:6 *38:12 49.9653 
3 *38:12 FrameData_O[14] 0.9785 
*END

*D_NET *39 0.0186976
*CONN
*P FrameData_O[15] O
*I *538:X O *D sg13g2_buf_1
*CAP
1 FrameData_O[15] 0.000496512
2 *538:X 6.44234e-05
3 *39:18 0.00375169
4 *39:10 0.00331961
5 FrameData_O[15] FrameData_O[16] 0
6 *39:18 FrameData_O[18] 0
7 *39:18 *65:9 0.00646068
8 FrameData_O[14] FrameData_O[15] 0
9 *538:A *39:10 0
10 *8:9 *39:18 0.00460473
11 *9:5 *39:18 0
12 *38:12 FrameData_O[15] 0
*RES
1 *538:X *39:10 40.6695 
2 *39:10 *39:18 45.4951 
3 *39:18 FrameData_O[15] 5.6341 
*END

*D_NET *40 0.000991434
*CONN
*P FrameData_O[16] O
*I *539:X O *D sg13g2_buf_1
*CAP
1 FrameData_O[16] 0.000495717
2 *539:X 0.000495717
3 FrameData_O[16] FrameData_O[17] 0
4 FrameData_O[15] FrameData_O[16] 0
*RES
1 *539:X FrameData_O[16] 45.3869 
*END

*D_NET *41 0.00134711
*CONN
*P FrameData_O[17] O
*I *540:X O *D sg13g2_buf_1
*CAP
1 FrameData_O[17] 0.000585764
2 *540:X 0.000585764
3 FrameData_O[17] FrameData_O[18] 0
4 FrameData_O[17] *573:A 0
5 FrameData_O[17] *574:A 0.000175579
6 FrameData_O[16] FrameData_O[17] 0
*RES
1 *540:X FrameData_O[17] 46.3242 
*END

*D_NET *42 0.00962748
*CONN
*P FrameData_O[18] O
*I *541:X O *D sg13g2_buf_1
*CAP
1 FrameData_O[18] 0.00377429
2 *541:X 0
3 *42:10 0.00481374
4 *42:6 0.00103945
5 FrameData_O[18] FrameData_O[19] 0
6 FrameData_O[18] *78:17 0
7 FrameData_O[17] FrameData_O[18] 0
8 *9:5 FrameData_O[18] 0
9 *9:5 *42:10 0
10 *9:13 FrameData_O[18] 0
11 *11:5 FrameData_O[18] 0
12 *11:5 *42:10 0
13 *39:18 FrameData_O[18] 0
*RES
1 *541:X *42:6 40 
2 *42:6 *42:10 11.4536 
3 *42:10 FrameData_O[18] 39.0988 
*END

*D_NET *43 0.00163824
*CONN
*P FrameData_O[19] O
*I *542:X O *D sg13g2_buf_1
*CAP
1 FrameData_O[19] 0.000714998
2 *542:X 0.000714998