*SPEF "ieee 1481-1999"
*DESIGN "E_TT_IF"
*DATE "14:13:51 Wednesday July 30, 2025"
*VENDOR "The OpenROAD Project"
*PROGRAM "OpenROAD"
*VERSION "341650e72dad0dc8571822ff8c5d9c5e365327f7"
*DESIGN_FLOW "NAME_SCOPE LOCAL" "PIN_CAP NONE"
*DIVIDER /
*DELIMITER :
*BUS_DELIMITER []
*T_UNIT 1 NS
*C_UNIT 1 PF
*R_UNIT 1 OHM
*L_UNIT 1 HENRY

*NAME_MAP
*1 CLK_TT_PROJECT
*2 E1END[0]
*3 E1END[1]
*4 E1END[2]
*5 E1END[3]
*6 E2END[0]
*7 E2END[1]
*8 E2END[2]
*9 E2END[3]
*10 E2END[4]
*11 E2END[5]
*12 E2END[6]
*13 E2END[7]
*14 E2MID[0]
*15 E2MID[1]
*16 E2MID[2]
*17 E2MID[3]
*18 E2MID[4]
*19 E2MID[5]
*20 E2MID[6]
*21 E2MID[7]
*22 E6END[0]
*23 E6END[10]
*24 E6END[11]
*25 E6END[1]
*26 E6END[2]
*27 E6END[3]
*28 E6END[4]
*29 E6END[5]
*30 E6END[6]
*31 E6END[7]
*32 E6END[8]
*33 E6END[9]
*34 EE4END[0]
*35 EE4END[10]
*36 EE4END[11]
*37 EE4END[12]
*38 EE4END[13]
*39 EE4END[14]
*40 EE4END[15]
*41 EE4END[1]
*42 EE4END[2]
*43 EE4END[3]
*44 EE4END[4]
*45 EE4END[5]
*46 EE4END[6]
*47 EE4END[7]
*48 EE4END[8]
*49 EE4END[9]
*50 ENA_TT_PROJECT
*51 FrameData[0]
*52 FrameData[10]
*53 FrameData[11]
*54 FrameData[12]
*55 FrameData[13]
*56 FrameData[14]
*57 FrameData[15]
*58 FrameData[16]
*59 FrameData[17]
*60 FrameData[18]
*61 FrameData[19]
*62 FrameData[1]
*63 FrameData[20]
*64 FrameData[21]
*65 FrameData[22]
*66 FrameData[23]
*67 FrameData[24]
*68 FrameData[25]
*69 FrameData[26]
*70 FrameData[27]
*71 FrameData[28]
*72 FrameData[29]
*73 FrameData[2]
*74 FrameData[30]
*75 FrameData[31]
*76 FrameData[3]
*77 FrameData[4]
*78 FrameData[5]
*79 FrameData[6]
*80 FrameData[7]
*81 FrameData[8]
*82 FrameData[9]
*83 FrameData_O[0]
*84 FrameData_O[10]
*85 FrameData_O[11]
*86 FrameData_O[12]
*87 FrameData_O[13]
*88 FrameData_O[14]
*89 FrameData_O[15]
*90 FrameData_O[16]
*91 FrameData_O[17]
*92 FrameData_O[18]
*93 FrameData_O[19]
*94 FrameData_O[1]
*95 FrameData_O[20]
*96 FrameData_O[21]
*97 FrameData_O[22]
*98 FrameData_O[23]
*99 FrameData_O[24]
*100 FrameData_O[25]
*101 FrameData_O[26]
*102 FrameData_O[27]
*103 FrameData_O[28]
*104 FrameData_O[29]
*105 FrameData_O[2]
*106 FrameData_O[30]
*107 FrameData_O[31]
*108 FrameData_O[3]
*109 FrameData_O[4]
*110 FrameData_O[5]
*111 FrameData_O[6]
*112 FrameData_O[7]
*113 FrameData_O[8]
*114 FrameData_O[9]
*115 FrameStrobe[0]
*116 FrameStrobe[10]
*117 FrameStrobe[11]
*118 FrameStrobe[12]
*119 FrameStrobe[13]
*120 FrameStrobe[14]
*121 FrameStrobe[15]
*122 FrameStrobe[16]
*123 FrameStrobe[17]
*124 FrameStrobe[18]
*125 FrameStrobe[19]
*126 FrameStrobe[1]
*127 FrameStrobe[2]
*128 FrameStrobe[3]
*129 FrameStrobe[4]
*130 FrameStrobe[5]
*131 FrameStrobe[6]
*132 FrameStrobe[7]
*133 FrameStrobe[8]
*134 FrameStrobe[9]
*135 FrameStrobe_O[0]
*136 FrameStrobe_O[10]
*137 FrameStrobe_O[11]
*138 FrameStrobe_O[12]
*139 FrameStrobe_O[13]
*140 FrameStrobe_O[14]
*141 FrameStrobe_O[15]
*142 FrameStrobe_O[16]
*143 FrameStrobe_O[17]
*144 FrameStrobe_O[18]
*145 FrameStrobe_O[19]
*146 FrameStrobe_O[1]
*147 FrameStrobe_O[2]
*148 FrameStrobe_O[3]
*149 FrameStrobe_O[4]
*150 FrameStrobe_O[5]
*151 FrameStrobe_O[6]
*152 FrameStrobe_O[7]
*153 FrameStrobe_O[8]
*154 FrameStrobe_O[9]
*155 N1BEG[0]
*156 N1BEG[1]
*157 N1BEG[2]
*158 N1BEG[3]
*159 N1END[0]
*160 N1END[1]
*161 N1END[2]
*162 N1END[3]
*163 N2BEG[0]
*164 N2BEG[1]
*165 N2BEG[2]
*166 N2BEG[3]
*167 N2BEG[4]
*168 N2BEG[5]
*169 N2BEG[6]
*170 N2BEG[7]
*171 N2BEGb[0]
*172 N2BEGb[1]
*173 N2BEGb[2]
*174 N2BEGb[3]
*175 N2BEGb[4]
*176 N2BEGb[5]
*177 N2BEGb[6]
*178 N2BEGb[7]
*179 N2END[0]
*180 N2END[1]
*181 N2END[2]
*182 N2END[3]
*183 N2END[4]
*184 N2END[5]
*185 N2END[6]
*186 N2END[7]
*187 N2MID[0]
*188 N2MID[1]
*189 N2MID[2]
*190 N2MID[3]
*191 N2MID[4]
*192 N2MID[5]
*193 N2MID[6]
*194 N2MID[7]
*195 N4BEG[0]
*196 N4BEG[10]
*197 N4BEG[11]
*198 N4BEG[12]
*199 N4BEG[13]
*200 N4BEG[14]
*201 N4BEG[15]
*202 N4BEG[1]
*203 N4BEG[2]
*204 N4BEG[3]
*205 N4BEG[4]
*206 N4BEG[5]
*207 N4BEG[6]
*208 N4BEG[7]
*209 N4BEG[8]
*210 N4BEG[9]
*211 N4END[0]
*212 N4END[10]
*213 N4END[11]
*214 N4END[12]
*215 N4END[13]
*216 N4END[14]
*217 N4END[15]
*218 N4END[1]
*219 N4END[2]
*220 N4END[3]
*221 N4END[4]
*222 N4END[5]
*223 N4END[6]
*224 N4END[7]
*225 N4END[8]
*226 N4END[9]
*227 RST_N_TT_PROJECT
*228 S1BEG[0]
*229 S1BEG[1]
*230 S1BEG[2]
*231 S1BEG[3]
*232 S1END[0]
*233 S1END[1]
*234 S1END[2]
*235 S1END[3]
*236 S2BEG[0]
*237 S2BEG[1]
*238 S2BEG[2]
*239 S2BEG[3]
*240 S2BEG[4]
*241 S2BEG[5]
*242 S2BEG[6]
*243 S2BEG[7]
*244 S2BEGb[0]
*245 S2BEGb[1]
*246 S2BEGb[2]
*247 S2BEGb[3]
*248 S2BEGb[4]
*249 S2BEGb[5]
*250 S2BEGb[6]
*251 S2BEGb[7]
*252 S2END[0]
*253 S2END[1]
*254 S2END[2]
*255 S2END[3]
*256 S2END[4]
*257 S2END[5]
*258 S2END[6]
*259 S2END[7]
*260 S2MID[0]
*261 S2MID[1]
*262 S2MID[2]
*263 S2MID[3]
*264 S2MID[4]
*265 S2MID[5]
*266 S2MID[6]
*267 S2MID[7]
*268 S4BEG[0]
*269 S4BEG[10]
*270 S4BEG[11]
*271 S4BEG[12]
*272 S4BEG[13]
*273 S4BEG[14]
*274 S4BEG[15]
*275 S4BEG[1]
*276 S4BEG[2]
*277 S4BEG[3]
*278 S4BEG[4]
*279 S4BEG[5]
*280 S4BEG[6]
*281 S4BEG[7]
*282 S4BEG[8]
*283 S4BEG[9]
*284 S4END[0]
*285 S4END[10]
*286 S4END[11]
*287 S4END[12]
*288 S4END[13]
*289 S4END[14]
*290 S4END[15]
*291 S4END[1]
*292 S4END[2]
*293 S4END[3]
*294 S4END[4]
*295 S4END[5]
*296 S4END[6]
*297 S4END[7]
*298 S4END[8]
*299 S4END[9]
*300 UIO_IN_TT_PROJECT0
*301 UIO_IN_TT_PROJECT1
*302 UIO_IN_TT_PROJECT2
*303 UIO_IN_TT_PROJECT3
*304 UIO_IN_TT_PROJECT4
*305 UIO_IN_TT_PROJECT5
*306 UIO_IN_TT_PROJECT6
*307 UIO_IN_TT_PROJECT7
*308 UIO_OE_TT_PROJECT0
*309 UIO_OE_TT_PROJECT1
*310 UIO_OE_TT_PROJECT2
*311 UIO_OE_TT_PROJECT3
*312 UIO_OE_TT_PROJECT4
*313 UIO_OE_TT_PROJECT5
*314 UIO_OE_TT_PROJECT6
*315 UIO_OE_TT_PROJECT7
*316 UIO_OUT_TT_PROJECT0
*317 UIO_OUT_TT_PROJECT1
*318 UIO_OUT_TT_PROJECT2
*319 UIO_OUT_TT_PROJECT3
*320 UIO_OUT_TT_PROJECT4
*321 UIO_OUT_TT_PROJECT5
*322 UIO_OUT_TT_PROJECT6
*323 UIO_OUT_TT_PROJECT7
*324 UI_IN_TT_PROJECT0
*325 UI_IN_TT_PROJECT1
*326 UI_IN_TT_PROJECT2
*327 UI_IN_TT_PROJECT3
*328 UI_IN_TT_PROJECT4
*329 UI_IN_TT_PROJECT5
*330 UI_IN_TT_PROJECT6
*331 UI_IN_TT_PROJECT7
*332 UO_OUT_TT_PROJECT0
*333 UO_OUT_TT_PROJECT1
*334 UO_OUT_TT_PROJECT2
*335 UO_OUT_TT_PROJECT3
*336 UO_OUT_TT_PROJECT4
*337 UO_OUT_TT_PROJECT5
*338 UO_OUT_TT_PROJECT6
*339 UO_OUT_TT_PROJECT7
*340 UserCLK
*341 UserCLKo
*344 W1BEG[0]
*345 W1BEG[1]
*346 W1BEG[2]
*347 W1BEG[3]
*348 W2BEG[0]
*349 W2BEG[1]
*350 W2BEG[2]
*351 W2BEG[3]
*352 W2BEG[4]
*353 W2BEG[5]
*354 W2BEG[6]
*355 W2BEG[7]
*356 W2BEGb[0]
*357 W2BEGb[1]
*358 W2BEGb[2]
*359 W2BEGb[3]
*360 W2BEGb[4]
*361 W2BEGb[5]
*362 W2BEGb[6]
*363 W2BEGb[7]
*364 W6BEG[0]
*365 W6BEG[10]
*366 W6BEG[11]
*367 W6BEG[1]
*368 W6BEG[2]
*369 W6BEG[3]
*370 W6BEG[4]
*371 W6BEG[5]
*372 W6BEG[6]
*373 W6BEG[7]
*374 W6BEG[8]
*375 W6BEG[9]
*376 WW4BEG[0]
*377 WW4BEG[10]
*378 WW4BEG[11]
*379 WW4BEG[12]
*380 WW4BEG[13]
*381 WW4BEG[14]
*382 WW4BEG[15]
*383 WW4BEG[1]
*384 WW4BEG[2]
*385 WW4BEG[3]
*386 WW4BEG[4]
*387 WW4BEG[5]
*388 WW4BEG[6]
*389 WW4BEG[7]
*390 WW4BEG[8]
*391 WW4BEG[9]
*392 Inst_E_TT_IF_ConfigMem\.Inst_frame0_bit0\.Q
*393 Inst_E_TT_IF_ConfigMem\.Inst_frame0_bit1\.Q
*394 Inst_E_TT_IF_ConfigMem\.Inst_frame0_bit10\.Q
*395 Inst_E_TT_IF_ConfigMem\.Inst_frame0_bit11\.Q
*396 Inst_E_TT_IF_ConfigMem\.Inst_frame0_bit12\.Q
*397 Inst_E_TT_IF_ConfigMem\.Inst_frame0_bit13\.Q
*398 Inst_E_TT_IF_ConfigMem\.Inst_frame0_bit14\.Q
*399 Inst_E_TT_IF_ConfigMem\.Inst_frame0_bit15\.Q
*400 Inst_E_TT_IF_ConfigMem\.Inst_frame0_bit16\.Q
*401 Inst_E_TT_IF_ConfigMem\.Inst_frame0_bit17\.Q
*402 Inst_E_TT_IF_ConfigMem\.Inst_frame0_bit18\.Q
*403 Inst_E_TT_IF_ConfigMem\.Inst_frame0_bit19\.Q
*404 Inst_E_TT_IF_ConfigMem\.Inst_frame0_bit2\.Q
*405 Inst_E_TT_IF_ConfigMem\.Inst_frame0_bit20\.Q
*406 Inst_E_TT_IF_ConfigMem\.Inst_frame0_bit21\.Q
*407 Inst_E_TT_IF_ConfigMem\.Inst_frame0_bit22\.Q
*408 Inst_E_TT_IF_ConfigMem\.Inst_frame0_bit23\.Q
*409 Inst_E_TT_IF_ConfigMem\.Inst_frame0_bit24\.Q
*410 Inst_E_TT_IF_ConfigMem\.Inst_frame0_bit25\.Q
*411 Inst_E_TT_IF_ConfigMem\.Inst_frame0_bit26\.Q
*412 Inst_E_TT_IF_ConfigMem\.Inst_frame0_bit27\.Q
*413 Inst_E_TT_IF_ConfigMem\.Inst_frame0_bit28\.Q
*414 Inst_E_TT_IF_ConfigMem\.Inst_frame0_bit29\.Q
*415 Inst_E_TT_IF_ConfigMem\.Inst_frame0_bit3\.Q
*416 Inst_E_TT_IF_ConfigMem\.Inst_frame0_bit30\.Q
*417 Inst_E_TT_IF_ConfigMem\.Inst_frame0_bit31\.Q
*418 Inst_E_TT_IF_ConfigMem\.Inst_frame0_bit4\.Q
*419 Inst_E_TT_IF_ConfigMem\.Inst_frame0_bit5\.Q
*420 Inst_E_TT_IF_ConfigMem\.Inst_frame0_bit6\.Q
*421 Inst_E_TT_IF_ConfigMem\.Inst_frame0_bit7\.Q
*422 Inst_E_TT_IF_ConfigMem\.Inst_frame0_bit8\.Q
*423 Inst_E_TT_IF_ConfigMem\.Inst_frame0_bit9\.Q
*424 Inst_E_TT_IF_ConfigMem\.Inst_frame1_bit0\.Q
*425 Inst_E_TT_IF_ConfigMem\.Inst_frame1_bit1\.Q
*426 Inst_E_TT_IF_ConfigMem\.Inst_frame1_bit10\.Q
*427 Inst_E_TT_IF_ConfigMem\.Inst_frame1_bit11\.Q
*428 Inst_E_TT_IF_ConfigMem\.Inst_frame1_bit12\.Q
*429 Inst_E_TT_IF_ConfigMem\.Inst_frame1_bit13\.Q
*430 Inst_E_TT_IF_ConfigMem\.Inst_frame1_bit14\.Q
*431 Inst_E_TT_IF_ConfigMem\.Inst_frame1_bit15\.Q
*432 Inst_E_TT_IF_ConfigMem\.Inst_frame1_bit16\.Q
*433 Inst_E_TT_IF_ConfigMem\.Inst_frame1_bit17\.Q
*434 Inst_E_TT_IF_ConfigMem\.Inst_frame1_bit18\.Q
*435 Inst_E_TT_IF_ConfigMem\.Inst_frame1_bit19\.Q
*436 Inst_E_TT_IF_ConfigMem\.Inst_frame1_bit2\.Q
*437 Inst_E_TT_IF_ConfigMem\.Inst_frame1_bit20\.Q
*438 Inst_E_TT_IF_ConfigMem\.Inst_frame1_bit21\.Q
*439 Inst_E_TT_IF_ConfigMem\.Inst_frame1_bit22\.Q
*440 Inst_E_TT_IF_ConfigMem\.Inst_frame1_bit23\.Q
*441 Inst_E_TT_IF_ConfigMem\.Inst_frame1_bit24\.Q
*442 Inst_E_TT_IF_ConfigMem\.Inst_frame1_bit25\.Q
*443 Inst_E_TT_IF_ConfigMem\.Inst_frame1_bit26\.Q
*444 Inst_E_TT_IF_ConfigMem\.Inst_frame1_bit27\.Q
*445 Inst_E_TT_IF_ConfigMem\.Inst_frame1_bit28\.Q
*446 Inst_E_TT_IF_ConfigMem\.Inst_frame1_bit29\.Q
*447 Inst_E_TT_IF_ConfigMem\.Inst_frame1_bit3\.Q
*448 Inst_E_TT_IF_ConfigMem\.Inst_frame1_bit30\.Q
*449 Inst_E_TT_IF_ConfigMem\.Inst_frame1_bit31\.Q
*450 Inst_E_TT_IF_ConfigMem\.Inst_frame1_bit4\.Q
*451 Inst_E_TT_IF_ConfigMem\.Inst_frame1_bit5\.Q
*452 Inst_E_TT_IF_ConfigMem\.Inst_frame1_bit6\.Q
*453 Inst_E_TT_IF_ConfigMem\.Inst_frame1_bit7\.Q
*454 Inst_E_TT_IF_ConfigMem\.Inst_frame1_bit8\.Q
*455 Inst_E_TT_IF_ConfigMem\.Inst_frame1_bit9\.Q
*456 Inst_E_TT_IF_ConfigMem\.Inst_frame2_bit0\.Q
*457 Inst_E_TT_IF_ConfigMem\.Inst_frame2_bit1\.Q
*458 Inst_E_TT_IF_ConfigMem\.Inst_frame2_bit10\.Q
*459 Inst_E_TT_IF_ConfigMem\.Inst_frame2_bit11\.Q
*460 Inst_E_TT_IF_ConfigMem\.Inst_frame2_bit12\.Q
*461 Inst_E_TT_IF_ConfigMem\.Inst_frame2_bit13\.Q
*462 Inst_E_TT_IF_ConfigMem\.Inst_frame2_bit14\.Q
*463 Inst_E_TT_IF_ConfigMem\.Inst_frame2_bit15\.Q
*464 Inst_E_TT_IF_ConfigMem\.Inst_frame2_bit16\.Q
*465 Inst_E_TT_IF_ConfigMem\.Inst_frame2_bit17\.Q
*466 Inst_E_TT_IF_ConfigMem\.Inst_frame2_bit18\.Q
*467 Inst_E_TT_IF_ConfigMem\.Inst_frame2_bit19\.Q
*468 Inst_E_TT_IF_ConfigMem\.Inst_frame2_bit2\.Q
*469 Inst_E_TT_IF_ConfigMem\.Inst_frame2_bit20\.Q
*470 Inst_E_TT_IF_ConfigMem\.Inst_frame2_bit21\.Q
*471 Inst_E_TT_IF_ConfigMem\.Inst_frame2_bit22\.Q
*472 Inst_E_TT_IF_ConfigMem\.Inst_frame2_bit23\.Q
*473 Inst_E_TT_IF_ConfigMem\.Inst_frame2_bit24\.Q
*474 Inst_E_TT_IF_ConfigMem\.Inst_frame2_bit25\.Q
*475 Inst_E_TT_IF_ConfigMem\.Inst_frame2_bit26\.Q
*476 Inst_E_TT_IF_ConfigMem\.Inst_frame2_bit27\.Q
*477 Inst_E_TT_IF_ConfigMem\.Inst_frame2_bit28\.Q
*478 Inst_E_TT_IF_ConfigMem\.Inst_frame2_bit29\.Q
*479 Inst_E_TT_IF_ConfigMem\.Inst_frame2_bit3\.Q
*480 Inst_E_TT_IF_ConfigMem\.Inst_frame2_bit30\.Q
*481 Inst_E_TT_IF_ConfigMem\.Inst_frame2_bit31\.Q
*482 Inst_E_TT_IF_ConfigMem\.Inst_frame2_bit4\.Q
*483 Inst_E_TT_IF_ConfigMem\.Inst_frame2_bit5\.Q
*484 Inst_E_TT_IF_ConfigMem\.Inst_frame2_bit6\.Q
*485 Inst_E_TT_IF_ConfigMem\.Inst_frame2_bit7\.Q
*486 Inst_E_TT_IF_ConfigMem\.Inst_frame2_bit8\.Q
*487 Inst_E_TT_IF_ConfigMem\.Inst_frame2_bit9\.Q
*488 Inst_E_TT_IF_ConfigMem\.Inst_frame3_bit0\.Q
*489 Inst_E_TT_IF_ConfigMem\.Inst_frame3_bit1\.Q
*490 Inst_E_TT_IF_ConfigMem\.Inst_frame3_bit10\.Q
*491 Inst_E_TT_IF_ConfigMem\.Inst_frame3_bit11\.Q
*492 Inst_E_TT_IF_ConfigMem\.Inst_frame3_bit12\.Q
*493 Inst_E_TT_IF_ConfigMem\.Inst_frame3_bit13\.Q
*494 Inst_E_TT_IF_ConfigMem\.Inst_frame3_bit14\.Q
*495 Inst_E_TT_IF_ConfigMem\.Inst_frame3_bit15\.Q
*496 Inst_E_TT_IF_ConfigMem\.Inst_frame3_bit16\.Q
*497 Inst_E_TT_IF_ConfigMem\.Inst_frame3_bit17\.Q
*498 Inst_E_TT_IF_ConfigMem\.Inst_frame3_bit18\.Q
*499 Inst_E_TT_IF_ConfigMem\.Inst_frame3_bit19\.Q
*500 Inst_E_TT_IF_ConfigMem\.Inst_frame3_bit2\.Q
*501 Inst_E_TT_IF_ConfigMem\.Inst_frame3_bit20\.Q
*502 Inst_E_TT_IF_ConfigMem\.Inst_frame3_bit21\.Q
*503 Inst_E_TT_IF_ConfigMem\.Inst_frame3_bit22\.Q
*504 Inst_E_TT_IF_ConfigMem\.Inst_frame3_bit23\.Q
*505 Inst_E_TT_IF_ConfigMem\.Inst_frame3_bit24\.Q
*506 Inst_E_TT_IF_ConfigMem\.Inst_frame3_bit25\.Q
*507 Inst_E_TT_IF_ConfigMem\.Inst_frame3_bit26\.Q
*508 Inst_E_TT_IF_ConfigMem\.Inst_frame3_bit27\.Q
*509 Inst_E_TT_IF_ConfigMem\.Inst_frame3_bit28\.Q
*510 Inst_E_TT_IF_ConfigMem\.Inst_frame3_bit29\.Q
*511 Inst_E_TT_IF_ConfigMem\.Inst_frame3_bit3\.Q
*512 Inst_E_TT_IF_ConfigMem\.Inst_frame3_bit30\.Q
*513 Inst_E_TT_IF_ConfigMem\.Inst_frame3_bit31\.Q
*514 Inst_E_TT_IF_ConfigMem\.Inst_frame3_bit4\.Q
*515 Inst_E_TT_IF_ConfigMem\.Inst_frame3_bit5\.Q
*516 Inst_E_TT_IF_ConfigMem\.Inst_frame3_bit6\.Q
*517 Inst_E_TT_IF_ConfigMem\.Inst_frame3_bit7\.Q
*518 Inst_E_TT_IF_ConfigMem\.Inst_frame3_bit8\.Q
*519 Inst_E_TT_IF_ConfigMem\.Inst_frame3_bit9\.Q
*520 Inst_E_TT_IF_ConfigMem\.Inst_frame4_bit0\.Q
*521 Inst_E_TT_IF_ConfigMem\.Inst_frame4_bit1\.Q
*522 Inst_E_TT_IF_ConfigMem\.Inst_frame4_bit10\.Q
*523 Inst_E_TT_IF_ConfigMem\.Inst_frame4_bit11\.Q
*524 Inst_E_TT_IF_ConfigMem\.Inst_frame4_bit12\.Q
*525 Inst_E_TT_IF_ConfigMem\.Inst_frame4_bit13\.Q
*526 Inst_E_TT_IF_ConfigMem\.Inst_frame4_bit14\.Q
*527 Inst_E_TT_IF_ConfigMem\.Inst_frame4_bit15\.Q
*528 Inst_E_TT_IF_ConfigMem\.Inst_frame4_bit16\.Q
*529 Inst_E_TT_IF_ConfigMem\.Inst_frame4_bit17\.Q
*530 Inst_E_TT_IF_ConfigMem\.Inst_frame4_bit18\.Q
*531 Inst_E_TT_IF_ConfigMem\.Inst_frame4_bit19\.Q
*532 Inst_E_TT_IF_ConfigMem\.Inst_frame4_bit2\.Q
*533 Inst_E_TT_IF_ConfigMem\.Inst_frame4_bit20\.Q
*534 Inst_E_TT_IF_ConfigMem\.Inst_frame4_bit21\.Q
*535 Inst_E_TT_IF_ConfigMem\.Inst_frame4_bit22\.Q
*536 Inst_E_TT_IF_ConfigMem\.Inst_frame4_bit23\.Q
*537 Inst_E_TT_IF_ConfigMem\.Inst_frame4_bit24\.Q
*538 Inst_E_TT_IF_ConfigMem\.Inst_frame4_bit25\.Q
*539 Inst_E_TT_IF_ConfigMem\.Inst_frame4_bit26\.Q
*540 Inst_E_TT_IF_ConfigMem\.Inst_frame4_bit27\.Q
*541 Inst_E_TT_IF_ConfigMem\.Inst_frame4_bit28\.Q
*542 Inst_E_TT_IF_ConfigMem\.Inst_frame4_bit29\.Q
*543 Inst_E_TT_IF_ConfigMem\.Inst_frame4_bit3\.Q
*544 Inst_E_TT_IF_ConfigMem\.Inst_frame4_bit30\.Q
*545 Inst_E_TT_IF_ConfigMem\.Inst_frame4_bit31\.Q
*546 Inst_E_TT_IF_ConfigMem\.Inst_frame4_bit4\.Q
*547 Inst_E_TT_IF_ConfigMem\.Inst_frame4_bit5\.Q
*548 Inst_E_TT_IF_ConfigMem\.Inst_frame4_bit6\.Q
*549 Inst_E_TT_IF_ConfigMem\.Inst_frame4_bit7\.Q
*550 Inst_E_TT_IF_ConfigMem\.Inst_frame4_bit8\.Q
*551 Inst_E_TT_IF_ConfigMem\.Inst_frame4_bit9\.Q
*552 Inst_E_TT_IF_ConfigMem\.Inst_frame5_bit0\.Q
*553 Inst_E_TT_IF_ConfigMem\.Inst_frame5_bit1\.Q
*554 Inst_E_TT_IF_ConfigMem\.Inst_frame5_bit10\.Q
*555 Inst_E_TT_IF_ConfigMem\.Inst_frame5_bit11\.Q
*556 Inst_E_TT_IF_ConfigMem\.Inst_frame5_bit12\.Q
*557 Inst_E_TT_IF_ConfigMem\.Inst_frame5_bit13\.Q
*558 Inst_E_TT_IF_ConfigMem\.Inst_frame5_bit14\.Q
*559 Inst_E_TT_IF_ConfigMem\.Inst_frame5_bit15\.Q
*560 Inst_E_TT_IF_ConfigMem\.Inst_frame5_bit16\.Q
*561 Inst_E_TT_IF_ConfigMem\.Inst_frame5_bit17\.Q
*562 Inst_E_TT_IF_ConfigMem\.Inst_frame5_bit18\.Q
*563 Inst_E_TT_IF_ConfigMem\.Inst_frame5_bit19\.Q
*564 Inst_E_TT_IF_ConfigMem\.Inst_frame5_bit2\.Q
*565 Inst_E_TT_IF_ConfigMem\.Inst_frame5_bit20\.Q
*566 Inst_E_TT_IF_ConfigMem\.Inst_frame5_bit21\.Q
*567 Inst_E_TT_IF_ConfigMem\.Inst_frame5_bit22\.Q
*568 Inst_E_TT_IF_ConfigMem\.Inst_frame5_bit23\.Q
*569 Inst_E_TT_IF_ConfigMem\.Inst_frame5_bit24\.Q
*570 Inst_E_TT_IF_ConfigMem\.Inst_frame5_bit25\.Q
*571 Inst_E_TT_IF_ConfigMem\.Inst_frame5_bit26\.Q
*572 Inst_E_TT_IF_ConfigMem\.Inst_frame5_bit27\.Q
*573 Inst_E_TT_IF_ConfigMem\.Inst_frame5_bit28\.Q
*574 Inst_E_TT_IF_ConfigMem\.Inst_frame5_bit29\.Q
*575 Inst_E_TT_IF_ConfigMem\.Inst_frame5_bit3\.Q
*576 Inst_E_TT_IF_ConfigMem\.Inst_frame5_bit30\.Q
*577 Inst_E_TT_IF_ConfigMem\.Inst_frame5_bit31\.Q
*578 Inst_E_TT_IF_ConfigMem\.Inst_frame5_bit4\.Q
*579 Inst_E_TT_IF_ConfigMem\.Inst_frame5_bit5\.Q
*580 Inst_E_TT_IF_ConfigMem\.Inst_frame5_bit6\.Q
*581 Inst_E_TT_IF_ConfigMem\.Inst_frame5_bit7\.Q
*582 Inst_E_TT_IF_ConfigMem\.Inst_frame5_bit8\.Q
*583 Inst_E_TT_IF_ConfigMem\.Inst_frame5_bit9\.Q
*584 Inst_E_TT_IF_ConfigMem\.Inst_frame6_bit0\.Q
*585 Inst_E_TT_IF_ConfigMem\.Inst_frame6_bit1\.Q
*586 Inst_E_TT_IF_ConfigMem\.Inst_frame6_bit10\.Q
*587 Inst_E_TT_IF_ConfigMem\.Inst_frame6_bit11\.Q
*588 Inst_E_TT_IF_ConfigMem\.Inst_frame6_bit12\.Q
*589 Inst_E_TT_IF_ConfigMem\.Inst_frame6_bit13\.Q
*590 Inst_E_TT_IF_ConfigMem\.Inst_frame6_bit14\.Q
*591 Inst_E_TT_IF_ConfigMem\.Inst_frame6_bit15\.Q
*592 Inst_E_TT_IF_ConfigMem\.Inst_frame6_bit16\.Q
*593 Inst_E_TT_IF_ConfigMem\.Inst_frame6_bit17\.Q
*594 Inst_E_TT_IF_ConfigMem\.Inst_frame6_bit18\.Q
*595 Inst_E_TT_IF_ConfigMem\.Inst_frame6_bit19\.Q
*596 Inst_E_TT_IF_ConfigMem\.Inst_frame6_bit2\.Q
*597 Inst_E_TT_IF_ConfigMem\.Inst_frame6_bit20\.Q
*598 Inst_E_TT_IF_ConfigMem\.Inst_frame6_bit21\.Q
*599 Inst_E_TT_IF_ConfigMem\.Inst_frame6_bit22\.Q
*600 Inst_E_TT_IF_ConfigMem\.Inst_frame6_bit23\.Q
*601 Inst_E_TT_IF_ConfigMem\.Inst_frame6_bit24\.Q
*602 Inst_E_TT_IF_ConfigMem\.Inst_frame6_bit25\.Q
*603 Inst_E_TT_IF_ConfigMem\.Inst_frame6_bit26\.Q
*604 Inst_E_TT_IF_ConfigMem\.Inst_frame6_bit27\.Q
*605 Inst_E_TT_IF_ConfigMem\.Inst_frame6_bit28\.Q
*606 Inst_E_TT_IF_ConfigMem\.Inst_frame6_bit29\.Q
*607 Inst_E_TT_IF_ConfigMem\.Inst_frame6_bit3\.Q
*608 Inst_E_TT_IF_ConfigMem\.Inst_frame6_bit30\.Q
*609 Inst_E_TT_IF_ConfigMem\.Inst_frame6_bit31\.Q
*610 Inst_E_TT_IF_ConfigMem\.Inst_frame6_bit4\.Q
*611 Inst_E_TT_IF_ConfigMem\.Inst_frame6_bit5\.Q
*612 Inst_E_TT_IF_ConfigMem\.Inst_frame6_bit6\.Q
*613 Inst_E_TT_IF_ConfigMem\.Inst_frame6_bit7\.Q
*614 Inst_E_TT_IF_ConfigMem\.Inst_frame6_bit8\.Q
*615 Inst_E_TT_IF_ConfigMem\.Inst_frame6_bit9\.Q
*616 Inst_E_TT_IF_ConfigMem\.Inst_frame7_bit0\.Q
*617 Inst_E_TT_IF_ConfigMem\.Inst_frame7_bit1\.Q
*618 Inst_E_TT_IF_ConfigMem\.Inst_frame7_bit10\.Q
*619 Inst_E_TT_IF_ConfigMem\.Inst_frame7_bit11\.Q
*620 Inst_E_TT_IF_ConfigMem\.Inst_frame7_bit12\.Q
*621 Inst_E_TT_IF_ConfigMem\.Inst_frame7_bit13\.Q
*622 Inst_E_TT_IF_ConfigMem\.Inst_frame7_bit14\.Q
*623 Inst_E_TT_IF_ConfigMem\.Inst_frame7_bit15\.Q
*624 Inst_E_TT_IF_ConfigMem\.Inst_frame7_bit16\.Q
*625 Inst_E_TT_IF_ConfigMem\.Inst_frame7_bit17\.Q
*626 Inst_E_TT_IF_ConfigMem\.Inst_frame7_bit18\.Q
*627 Inst_E_TT_IF_ConfigMem\.Inst_frame7_bit19\.Q
*628 Inst_E_TT_IF_ConfigMem\.Inst_frame7_bit2\.Q
*629 Inst_E_TT_IF_ConfigMem\.Inst_frame7_bit20\.Q
*630 Inst_E_TT_IF_ConfigMem\.Inst_frame7_bit21\.Q
*631 Inst_E_TT_IF_ConfigMem\.Inst_frame7_bit22\.Q
*632 Inst_E_TT_IF_ConfigMem\.Inst_frame7_bit23\.Q
*633 Inst_E_TT_IF_ConfigMem\.Inst_frame7_bit24\.Q
*634 Inst_E_TT_IF_ConfigMem\.Inst_frame7_bit25\.Q
*635 Inst_E_TT_IF_ConfigMem\.Inst_frame7_bit26\.Q
*636 Inst_E_TT_IF_ConfigMem\.Inst_frame7_bit27\.Q
*637 Inst_E_TT_IF_ConfigMem\.Inst_frame7_bit28\.Q
*638 Inst_E_TT_IF_ConfigMem\.Inst_frame7_bit29\.Q
*639 Inst_E_TT_IF_ConfigMem\.Inst_frame7_bit3\.Q
*640 Inst_E_TT_IF_ConfigMem\.Inst_frame7_bit30\.Q
*641 Inst_E_TT_IF_ConfigMem\.Inst_frame7_bit31\.Q
*642 Inst_E_TT_IF_ConfigMem\.Inst_frame7_bit4\.Q
*643 Inst_E_TT_IF_ConfigMem\.Inst_frame7_bit5\.Q
*644 Inst_E_TT_IF_ConfigMem\.Inst_frame7_bit6\.Q
*645 Inst_E_TT_IF_ConfigMem\.Inst_frame7_bit7\.Q
*646 Inst_E_TT_IF_ConfigMem\.Inst_frame7_bit8\.Q
*647 Inst_E_TT_IF_ConfigMem\.Inst_frame7_bit9\.Q
*648 Inst_E_TT_IF_ConfigMem\.Inst_frame8_bit0\.Q
*649 Inst_E_TT_IF_ConfigMem\.Inst_frame8_bit1\.Q
*650 Inst_E_TT_IF_ConfigMem\.Inst_frame8_bit10\.Q
*651 Inst_E_TT_IF_ConfigMem\.Inst_frame8_bit11\.Q
*652 Inst_E_TT_IF_ConfigMem\.Inst_frame8_bit12\.Q
*653 Inst_E_TT_IF_ConfigMem\.Inst_frame8_bit13\.Q
*654 Inst_E_TT_IF_ConfigMem\.Inst_frame8_bit14\.Q
*655 Inst_E_TT_IF_ConfigMem\.Inst_frame8_bit15\.Q
*656 Inst_E_TT_IF_ConfigMem\.Inst_frame8_bit16\.Q
*657 Inst_E_TT_IF_ConfigMem\.Inst_frame8_bit17\.Q
*658 Inst_E_TT_IF_ConfigMem\.Inst_frame8_bit18\.Q
*659 Inst_E_TT_IF_ConfigMem\.Inst_frame8_bit19\.Q
*660 Inst_E_TT_IF_ConfigMem\.Inst_frame8_bit2\.Q
*661 Inst_E_TT_IF_ConfigMem\.Inst_frame8_bit20\.Q
*662 Inst_E_TT_IF_ConfigMem\.Inst_frame8_bit21\.Q
*663 Inst_E_TT_IF_ConfigMem\.Inst_frame8_bit22\.Q
*664 Inst_E_TT_IF_ConfigMem\.Inst_frame8_bit23\.Q
*665 Inst_E_TT_IF_ConfigMem\.Inst_frame8_bit24\.Q
*666 Inst_E_TT_IF_ConfigMem\.Inst_frame8_bit25\.Q
*667 Inst_E_TT_IF_ConfigMem\.Inst_frame8_bit26\.Q
*668 Inst_E_TT_IF_ConfigMem\.Inst_frame8_bit27\.Q
*669 Inst_E_TT_IF_ConfigMem\.Inst_frame8_bit28\.Q
*670 Inst_E_TT_IF_ConfigMem\.Inst_frame8_bit29\.Q
*671 Inst_E_TT_IF_ConfigMem\.Inst_frame8_bit3\.Q
*672 Inst_E_TT_IF_ConfigMem\.Inst_frame8_bit30\.Q
*673 Inst_E_TT_IF_ConfigMem\.Inst_frame8_bit31\.Q
*674 Inst_E_TT_IF_ConfigMem\.Inst_frame8_bit4\.Q
*675 Inst_E_TT_IF_ConfigMem\.Inst_frame8_bit5\.Q
*676 Inst_E_TT_IF_ConfigMem\.Inst_frame8_bit6\.Q
*677 Inst_E_TT_IF_ConfigMem\.Inst_frame8_bit7\.Q
*678 Inst_E_TT_IF_ConfigMem\.Inst_frame8_bit8\.Q
*679 Inst_E_TT_IF_ConfigMem\.Inst_frame8_bit9\.Q
*680 Inst_E_TT_IF_ConfigMem\.Inst_frame9_bit22\.Q
*681 Inst_E_TT_IF_ConfigMem\.Inst_frame9_bit23\.Q
*682 Inst_E_TT_IF_ConfigMem\.Inst_frame9_bit24\.Q
*683 Inst_E_TT_IF_ConfigMem\.Inst_frame9_bit25\.Q
*684 Inst_E_TT_IF_ConfigMem\.Inst_frame9_bit26\.Q
*685 Inst_E_TT_IF_ConfigMem\.Inst_frame9_bit27\.Q
*686 Inst_E_TT_IF_ConfigMem\.Inst_frame9_bit28\.Q
*687 Inst_E_TT_IF_ConfigMem\.Inst_frame9_bit29\.Q
*688 Inst_E_TT_IF_ConfigMem\.Inst_frame9_bit30\.Q
*689 Inst_E_TT_IF_ConfigMem\.Inst_frame9_bit31\.Q
*690 Inst_E_TT_IF_switch_matrix\.N1BEG0
*691 Inst_E_TT_IF_switch_matrix\.N1BEG1
*692 Inst_E_TT_IF_switch_matrix\.N1BEG2
*693 Inst_E_TT_IF_switch_matrix\.N1BEG3
*694 Inst_E_TT_IF_switch_matrix\.N2BEG0
*695 Inst_E_TT_IF_switch_matrix\.N2BEG1
*696 Inst_E_TT_IF_switch_matrix\.N2BEG2
*697 Inst_E_TT_IF_switch_matrix\.N2BEG3
*698 Inst_E_TT_IF_switch_matrix\.N2BEG4
*699 Inst_E_TT_IF_switch_matrix\.N2BEG5
*700 Inst_E_TT_IF_switch_matrix\.N2BEG6
*701 Inst_E_TT_IF_switch_matrix\.N2BEG7
*702 Inst_E_TT_IF_switch_matrix\.N4BEG0
*703 Inst_E_TT_IF_switch_matrix\.N4BEG1
*704 Inst_E_TT_IF_switch_matrix\.N4BEG2
*705 Inst_E_TT_IF_switch_matrix\.N4BEG3
*706 Inst_E_TT_IF_switch_matrix\.S1BEG0
*707 Inst_E_TT_IF_switch_matrix\.S1BEG1
*708 Inst_E_TT_IF_switch_matrix\.S1BEG2
*709 Inst_E_TT_IF_switch_matrix\.S1BEG3
*710 Inst_E_TT_IF_switch_matrix\.S2BEG0
*711 Inst_E_TT_IF_switch_matrix\.S2BEG1
*712 Inst_E_TT_IF_switch_matrix\.S2BEG2
*713 Inst_E_TT_IF_switch_matrix\.S2BEG3
*714 Inst_E_TT_IF_switch_matrix\.S2BEG4
*715 Inst_E_TT_IF_switch_matrix\.S2BEG5
*716 Inst_E_TT_IF_switch_matrix\.S2BEG6
*717 Inst_E_TT_IF_switch_matrix\.S2BEG7
*718 Inst_E_TT_IF_switch_matrix\.S4BEG0
*719 Inst_E_TT_IF_switch_matrix\.S4BEG1
*720 Inst_E_TT_IF_switch_matrix\.S4BEG2
*721 Inst_E_TT_IF_switch_matrix\.S4BEG3
*722 Inst_E_TT_IF_switch_matrix\.W1BEG0
*723 Inst_E_TT_IF_switch_matrix\.W1BEG1
*724 Inst_E_TT_IF_switch_matrix\.W1BEG2
*725 Inst_E_TT_IF_switch_matrix\.W1BEG3
*726 Inst_E_TT_IF_switch_matrix\.W2BEG0
*727 Inst_E_TT_IF_switch_matrix\.W2BEG1
*728 Inst_E_TT_IF_switch_matrix\.W2BEG2
*729 Inst_E_TT_IF_switch_matrix\.W2BEG3
*730 Inst_E_TT_IF_switch_matrix\.W2BEG4
*731 Inst_E_TT_IF_switch_matrix\.W2BEG5
*732 Inst_E_TT_IF_switch_matrix\.W2BEG6
*733 Inst_E_TT_IF_switch_matrix\.W2BEG7
*734 Inst_E_TT_IF_switch_matrix\.W2BEGb0
*735 Inst_E_TT_IF_switch_matrix\.W2BEGb1
*736 Inst_E_TT_IF_switch_matrix\.W2BEGb2
*737 Inst_E_TT_IF_switch_matrix\.W2BEGb3
*738 Inst_E_TT_IF_switch_matrix\.W2BEGb4
*739 Inst_E_TT_IF_switch_matrix\.W2BEGb5
*740 Inst_E_TT_IF_switch_matrix\.W2BEGb6
*741 Inst_E_TT_IF_switch_matrix\.W2BEGb7
*742 Inst_E_TT_IF_switch_matrix\.W6BEG0
*743 Inst_E_TT_IF_switch_matrix\.W6BEG1
*744 Inst_E_TT_IF_switch_matrix\.W6BEG10
*745 Inst_E_TT_IF_switch_matrix\.W6BEG11
*746 Inst_E_TT_IF_switch_matrix\.W6BEG2
*747 Inst_E_TT_IF_switch_matrix\.W6BEG3
*748 Inst_E_TT_IF_switch_matrix\.W6BEG4
*749 Inst_E_TT_IF_switch_matrix\.W6BEG5
*750 Inst_E_TT_IF_switch_matrix\.W6BEG6
*751 Inst_E_TT_IF_switch_matrix\.W6BEG7
*752 Inst_E_TT_IF_switch_matrix\.W6BEG8
*753 Inst_E_TT_IF_switch_matrix\.W6BEG9
*754 Inst_E_TT_IF_switch_matrix\.WW4BEG0
*755 Inst_E_TT_IF_switch_matrix\.WW4BEG1
*756 Inst_E_TT_IF_switch_matrix\.WW4BEG10
*757 Inst_E_TT_IF_switch_matrix\.WW4BEG11
*758 Inst_E_TT_IF_switch_matrix\.WW4BEG12
*759 Inst_E_TT_IF_switch_matrix\.WW4BEG13
*760 Inst_E_TT_IF_switch_matrix\.WW4BEG14
*761 Inst_E_TT_IF_switch_matrix\.WW4BEG15
*762 Inst_E_TT_IF_switch_matrix\.WW4BEG2
*763 Inst_E_TT_IF_switch_matrix\.WW4BEG3
*764 Inst_E_TT_IF_switch_matrix\.WW4BEG4
*765 Inst_E_TT_IF_switch_matrix\.WW4BEG5
*766 Inst_E_TT_IF_switch_matrix\.WW4BEG6
*767 Inst_E_TT_IF_switch_matrix\.WW4BEG7
*768 Inst_E_TT_IF_switch_matrix\.WW4BEG8
*769 Inst_E_TT_IF_switch_matrix\.WW4BEG9
*770 _0000_
*771 _0001_
*772 _0002_
*773 _0003_
*774 _0004_
*775 _0005_
*776 _0006_
*777 _0007_
*778 _0008_
*779 _0009_
*780 _0010_
*781 _0011_
*782 _0012_
*783 _0013_
*784 _0014_
*785 _0015_
*786 _0016_
*787 _0017_
*788 _0018_
*789 _0019_
*790 _0020_
*791 _0021_
*792 _0022_
*793 _0023_
*794 _0024_
*795 _0025_
*796 _0026_
*797 _0027_
*798 _0028_
*799 _0029_
*800 _0030_
*801 _0031_
*802 _0032_
*803 _0033_
*804 _0034_
*805 _0035_
*806 _0036_
*807 _0037_
*808 _0038_
*809 _0039_
*810 _0040_
*811 _0041_
*812 _0042_
*813 _0043_
*814 _0044_
*815 _0045_
*816 _0046_
*817 _0047_
*818 _0048_
*819 _0049_
*820 _0050_
*821 _0051_
*822 _0052_
*823 _0053_
*824 _0054_
*825 _0055_
*826 _0056_
*827 _0057_
*828 _0058_
*829 _0059_
*830 _0060_
*831 _0061_
*832 _0062_
*833 _0063_
*834 _0064_
*835 _0065_
*836 _0066_
*837 _0067_
*838 _0068_
*839 _0069_
*840 _0070_
*841 _0071_
*842 _0072_
*843 _0073_
*844 _0074_
*845 _0075_
*846 _0076_
*847 _0077_
*848 _0078_
*849 _0079_
*850 _0080_
*851 _0081_
*852 _0082_
*853 _0083_
*854 _0084_
*855 _0085_
*856 _0086_
*857 _0087_
*858 _0088_
*859 _0089_
*860 _0090_
*861 _0091_
*862 _0092_
*863 _0093_
*864 _0094_
*865 _0095_
*866 _0096_
*867 _0097_
*868 _0098_
*869 _0099_
*870 _0100_
*871 _0101_
*872 _0102_
*873 _0103_
*874 _0104_
*875 _0105_
*876 _0106_
*877 _0107_
*878 _0108_
*879 _0109_
*880 _0110_
*881 _0111_
*882 _0112_
*883 _0113_
*884 _0114_
*885 _0115_
*886 _0116_
*887 _0117_
*888 _0118_
*889 _0119_
*890 _0120_
*891 _0121_
*892 _0122_
*893 _0123_
*894 _0124_
*895 _0125_
*896 _0126_
*897 _0127_
*898 _0128_
*899 _0129_
*900 _0130_
*901 _0131_
*902 _0132_
*903 _0133_
*904 _0134_
*905 _0135_
*906 _0136_
*907 _0137_
*908 _0138_
*909 _0139_
*910 _0140_
*911 _0141_
*912 _0142_
*913 _0143_
*914 _0144_
*915 _0145_
*916 _0146_
*917 _0147_
*918 _0148_
*919 _0149_
*920 _0150_
*921 _0151_
*922 _0152_
*923 _0153_
*924 _0154_
*925 _0155_
*926 _0156_
*927 _0157_
*928 _0158_
*929 _0159_
*930 _0160_
*931 _0161_
*932 _0162_
*933 _0163_
*934 _0164_
*935 _0165_
*936 _0166_
*937 _0167_
*938 _0168_
*939 _0169_
*940 _0170_
*941 _0171_
*942 _0172_
*943 _0173_
*944 _0174_
*945 _0175_
*946 _0176_
*947 _0177_
*948 _0178_
*949 _0179_
*950 _0180_
*951 _0181_
*952 _0182_
*953 _0183_
*954 _0184_
*955 _0185_
*956 _0186_
*957 _0187_
*958 _0188_
*959 _0189_
*960 _0190_
*961 _0191_
*962 _0192_
*963 _0193_
*964 _0194_
*965 _0195_
*966 _0196_
*967 _0197_
*968 _0198_
*969 _0199_
*970 _0200_
*971 _0201_
*972 _0202_
*973 _0203_
*974 _0204_
*975 _0205_
*976 _0206_
*977 _0207_
*978 _0208_
*979 _0209_
*980 _0210_
*981 _0211_
*982 _0212_
*983 _0213_
*984 _0214_
*985 _0215_
*986 _0216_
*987 _0217_
*988 _0218_
*989 _0219_
*990 _0220_
*991 _0221_
*992 _0222_
*993 _0223_
*994 _0224_
*995 _0225_
*996 _0226_
*997 _0227_
*998 _0228_
*999 _0229_
*1000 _0230_
*1001 _0231_
*1002 _0232_
*1003 _0233_
*1004 _0234_
*1005 _0235_
*1006 _0236_
*1007 _0237_
*1008 _0238_
*1009 _0239_
*1010 _0240_
*1011 _0241_
*1012 _0242_
*1013 _0243_
*1014 _0244_
*1015 _0245_
*1016 _0246_
*1017 _0247_
*1018 _0248_
*1019 _0249_
*1020 _0250_
*1021 _0251_
*1022 _0252_
*1023 _0253_
*1024 _0254_
*1025 _0255_
*1026 _0256_
*1027 _0257_
*1028 _0258_
*1029 _0259_
*1030 _0260_
*1031 _0261_
*1032 _0262_
*1033 _0263_
*1034 _0264_
*1035 _0265_
*1036 _0266_
*1037 _0267_
*1038 _0268_
*1039 _0269_
*1040 _0270_
*1041 _0271_
*1042 _0272_
*1043 _0273_
*1044 _0274_
*1045 _0275_
*1046 _0276_
*1047 _0277_
*1048 _0278_
*1049 _0279_
*1050 _0280_
*1051 _0281_
*1052 _0282_
*1053 _0283_
*1054 _0284_
*1055 _0285_
*1056 _0286_
*1057 _0287_
*1058 _0288_
*1059 _0289_
*1060 _0290_
*1061 _0291_
*1062 _0292_
*1063 _0293_
*1064 _0294_
*1065 _0295_
*1066 _0296_
*1067 _0297_
*1068 _0298_
*1069 _0299_
*1070 _0300_
*1071 _0301_
*1072 _0302_
*1073 _0303_
*1074 _0304_
*1075 _0305_
*1076 _0306_
*1077 _0307_
*1078 _0308_
*1079 _0309_
*1080 _0310_
*1081 _0311_
*1082 _0312_
*1083 _0313_
*1084 _0314_
*1085 _0315_
*1086 _0316_
*1087 _0317_
*1088 _0318_
*1089 _0319_
*1090 _0320_
*1091 _0321_
*1092 _0322_
*1093 _0323_
*1094 _0324_
*1095 _0325_
*1096 _0326_
*1097 _0327_
*1098 _0328_
*1099 _0329_
*1100 _0330_
*1101 _0331_
*1102 _0332_
*1103 _0333_
*1104 _0334_
*1105 _0335_
*1106 _0336_
*1107 _0337_
*1108 _0338_
*1109 _0339_
*1110 _0340_
*1111 _0341_
*1112 _0342_
*1113 _0343_
*1114 _0344_
*1115 _0345_
*1116 _0346_
*1117 _0347_
*1118 _0348_
*1119 _0349_
*1120 _0350_
*1121 _0351_
*1122 _0352_
*1123 _0353_
*1124 _0354_
*1125 _0355_
*1126 _0356_
*1127 _0357_
*1128 _0358_
*1129 _0359_
*1130 _0360_
*1131 _0361_
*1132 _0362_
*1133 _0363_
*1134 _0364_
*1135 _0365_
*1136 _0366_
*1137 _0367_
*1138 _0368_
*1139 _0369_
*1140 _0370_
*1141 _0371_
*1142 _0372_
*1143 _0373_
*1144 _0374_
*1145 _0375_
*1146 _0376_
*1147 _0377_
*1148 _0378_
*1149 _0379_
*1150 _0380_
*1151 clknet_0_UserCLK
*1152 clknet_1_0__leaf_UserCLK
*1153 clknet_1_1__leaf_UserCLK
*1154 ANTENNA_1
*1155 ANTENNA_10
*1156 ANTENNA_11
*1157 ANTENNA_12
*1158 ANTENNA_13
*1159 ANTENNA_14
*1160 ANTENNA_15
*1161 ANTENNA_16
*1162 ANTENNA_17
*1163 ANTENNA_18
*1164 ANTENNA_19
*1165 ANTENNA_2
*1166 ANTENNA_20
*1167 ANTENNA_21
*1168 ANTENNA_22
*1169 ANTENNA_23
*1170 ANTENNA_24