*SPEF "ieee 1481-1999"
*DESIGN "E_TT_IF"
*DATE "15:09:39 Thursday July 17, 2025"
*VENDOR "The OpenROAD Project"
*PROGRAM "OpenROAD"
*VERSION "341650e72dad0dc8571822ff8c5d9c5e365327f7"
*DESIGN_FLOW "NAME_SCOPE LOCAL" "PIN_CAP NONE"
*DIVIDER /
*DELIMITER :
*BUS_DELIMITER []
*T_UNIT 1 NS
*C_UNIT 1 PF
*R_UNIT 1 OHM
*L_UNIT 1 HENRY

*NAME_MAP
*1 CLK_TT_PROJECT
*2 E1END[0]
*3 E1END[1]
*4 E1END[2]
*5 E1END[3]
*6 E2END[0]
*7 E2END[1]
*8 E2END[2]
*9 E2END[3]
*10 E2END[4]
*11 E2END[5]
*12 E2END[6]
*13 E2END[7]
*14 E2MID[0]
*15 E2MID[1]
*16 E2MID[2]
*17 E2MID[3]
*18 E2MID[4]
*19 E2MID[5]
*20 E2MID[6]
*21 E2MID[7]
*22 E6END[0]
*23 E6END[10]
*24 E6END[11]
*25 E6END[1]
*26 E6END[2]
*27 E6END[3]
*28 E6END[4]
*29 E6END[5]
*30 E6END[6]
*31 E6END[7]
*32 E6END[8]
*33 E6END[9]
*34 EE4END[0]
*35 EE4END[10]
*36 EE4END[11]
*37 EE4END[12]
*38 EE4END[13]
*39 EE4END[14]
*40 EE4END[15]
*41 EE4END[1]
*42 EE4END[2]
*43 EE4END[3]
*44 EE4END[4]
*45 EE4END[5]
*46 EE4END[6]
*47 EE4END[7]
*48 EE4END[8]
*49 EE4END[9]
*50 ENA_TT_PROJECT
*51 FrameData[0]
*52 FrameData[10]
*53 FrameData[11]
*54 FrameData[12]
*55 FrameData[13]
*56 FrameData[14]
*57 FrameData[15]
*58 FrameData[16]
*59 FrameData[17]
*60 FrameData[18]
*61 FrameData[19]
*62 FrameData[1]
*63 FrameData[20]
*64 FrameData[21]
*65 FrameData[22]
*66 FrameData[23]
*67 FrameData[24]
*68 FrameData[25]
*69 FrameData[26]
*70 FrameData[27]
*71 FrameData[28]
*72 FrameData[29]
*73 FrameData[2]
*74 FrameData[30]
*75 FrameData[31]
*76 FrameData[3]
*77 FrameData[4]
*78 FrameData[5]
*79 FrameData[6]
*80 FrameData[7]
*81 FrameData[8]
*82 FrameData[9]
*83 FrameData_O[0]
*84 FrameData_O[10]
*85 FrameData_O[11]
*86 FrameData_O[12]
*87 FrameData_O[13]
*88 FrameData_O[14]
*89 FrameData_O[15]
*90 FrameData_O[16]
*91 FrameData_O[17]
*92 FrameData_O[18]
*93 FrameData_O[19]
*94 FrameData_O[1]
*95 FrameData_O[20]
*96 FrameData_O[21]
*97 FrameData_O[22]
*98 FrameData_O[23]
*99 FrameData_O[24]
*100 FrameData_O[25]
*101 FrameData_O[26]
*102 FrameData_O[27]
*103 FrameData_O[28]
*104 FrameData_O[29]
*105 FrameData_O[2]
*106 FrameData_O[30]
*107 FrameData_O[31]
*108 FrameData_O[3]
*109 FrameData_O[4]
*110 FrameData_O[5]
*111 FrameData_O[6]
*112 FrameData_O[7]
*113 FrameData_O[8]
*114 FrameData_O[9]
*115 FrameStrobe[0]
*116 FrameStrobe[10]
*117 FrameStrobe[11]
*118 FrameStrobe[12]
*119 FrameStrobe[13]
*120 FrameStrobe[14]
*121 FrameStrobe[15]
*122 FrameStrobe[16]
*123 FrameStrobe[17]
*124 FrameStrobe[18]
*125 FrameStrobe[19]
*126 FrameStrobe[1]
*127 FrameStrobe[2]
*128 FrameStrobe[3]
*129 FrameStrobe[4]
*130 FrameStrobe[5]
*131 FrameStrobe[6]
*132 FrameStrobe[7]
*133 FrameStrobe[8]
*134 FrameStrobe[9]
*135 FrameStrobe_O[0]
*136 FrameStrobe_O[10]
*137 FrameStrobe_O[11]
*138 FrameStrobe_O[12]
*139 FrameStrobe_O[13]
*140 FrameStrobe_O[14]
*141 FrameStrobe_O[15]
*142 FrameStrobe_O[16]
*143 FrameStrobe_O[17]
*144 FrameStrobe_O[18]
*145 FrameStrobe_O[19]
*146 FrameStrobe_O[1]
*147 FrameStrobe_O[2]
*148 FrameStrobe_O[3]
*149 FrameStrobe_O[4]
*150 FrameStrobe_O[5]
*151 FrameStrobe_O[6]
*152 FrameStrobe_O[7]
*153 FrameStrobe_O[8]
*154 FrameStrobe_O[9]
*155 N1BEG[0]
*156 N1BEG[1]
*157 N1BEG[2]
*158 N1BEG[3]
*159 N1END[0]
*160 N1END[1]
*161 N1END[2]
*162 N1END[3]
*163 N2BEG[0]
*164 N2BEG[1]
*165 N2BEG[2]
*166 N2BEG[3]
*167 N2BEG[4]
*168 N2BEG[5]
*169 N2BEG[6]
*170 N2BEG[7]
*171 N2BEGb[0]
*172 N2BEGb[1]
*173 N2BEGb[2]
*174 N2BEGb[3]
*175 N2BEGb[4]
*176 N2BEGb[5]
*177 N2BEGb[6]
*178 N2BEGb[7]
*179 N2END[0]
*180 N2END[1]
*181 N2END[2]
*182 N2END[3]
*183 N2END[4]
*184 N2END[5]
*185 N2END[6]
*186 N2END[7]
*187 N2MID[0]
*188 N2MID[1]
*189 N2MID[2]
*190 N2MID[3]
*191 N2MID[4]
*192 N2MID[5]
*193 N2MID[6]
*194 N2MID[7]
*195 N4BEG[0]
*196 N4BEG[10]
*197 N4BEG[11]
*198 N4BEG[12]
*199 N4BEG[13]
*200 N4BEG[14]
*201 N4BEG[15]
*202 N4BEG[1]
*203 N4BEG[2]
*204 N4BEG[3]
*205 N4BEG[4]
*206 N4BEG[5]
*207 N4BEG[6]
*208 N4BEG[7]
*209 N4BEG[8]
*210 N4BEG[9]
*211 N4END[0]
*212 N4END[10]
*213 N4END[11]
*214 N4END[12]
*215 N4END[13]
*216 N4END[14]
*217 N4END[15]
*218 N4END[1]
*219 N4END[2]
*220 N4END[3]
*221 N4END[4]
*222 N4END[5]
*223 N4END[6]
*224 N4END[7]
*225 N4END[8]
*226 N4END[9]
*227 RST_N_TT_PROJECT
*228 S1BEG[0]
*229 S1BEG[1]
*230 S1BEG[2]
*231 S1BEG[3]
*232 S1END[0]
*233 S1END[1]
*234 S1END[2]
*235 S1END[3]
*236 S2BEG[0]
*237 S2BEG[1]
*238 S2BEG[2]
*239 S2BEG[3]
*240 S2BEG[4]
*241 S2BEG[5]
*242 S2BEG[6]
*243 S2BEG[7]
*244 S2BEGb[0]
*245 S2BEGb[1]
*246 S2BEGb[2]
*247 S2BEGb[3]
*248 S2BEGb[4]
*249 S2BEGb[5]
*250 S2BEGb[6]
*251 S2BEGb[7]
*252 S2END[0]
*253 S2END[1]
*254 S2END[2]
*255 S2END[3]
*256 S2END[4]
*257 S2END[5]
*258 S2END[6]
*259 S2END[7]
*260 S2MID[0]
*261 S2MID[1]
*262 S2MID[2]
*263 S2MID[3]
*264 S2MID[4]
*265 S2MID[5]
*266 S2MID[6]
*267 S2MID[7]
*268 S4BEG[0]
*269 S4BEG[10]
*270 S4BEG[11]
*271 S4BEG[12]
*272 S4BEG[13]
*273 S4BEG[14]
*274 S4BEG[15]
*275 S4BEG[1]
*276 S4BEG[2]
*277 S4BEG[3]
*278 S4BEG[4]
*279 S4BEG[5]
*280 S4BEG[6]
*281 S4BEG[7]
*282 S4BEG[8]
*283 S4BEG[9]
*284 S4END[0]
*285 S4END[10]
*286 S4END[11]
*287 S4END[12]
*288 S4END[13]
*289 S4END[14]
*290 S4END[15]
*291 S4END[1]
*292 S4END[2]
*293 S4END[3]
*294 S4END[4]
*295 S4END[5]
*296 S4END[6]
*297 S4END[7]
*298 S4END[8]
*299 S4END[9]
*300 UIO_IN_TT_PROJECT0
*301 UIO_IN_TT_PROJECT1
*302 UIO_IN_TT_PROJECT2
*303 UIO_IN_TT_PROJECT3
*304 UIO_IN_TT_PROJECT4
*305 UIO_IN_TT_PROJECT5
*306 UIO_IN_TT_PROJECT6
*307 UIO_IN_TT_PROJECT7
*308 UIO_OE_TT_PROJECT0
*309 UIO_OE_TT_PROJECT1
*310 UIO_OE_TT_PROJECT2
*311 UIO_OE_TT_PROJECT3
*312 UIO_OE_TT_PROJECT4
*313 UIO_OE_TT_PROJECT5
*314 UIO_OE_TT_PROJECT6
*315 UIO_OE_TT_PROJECT7
*316 UIO_OUT_TT_PROJECT0
*317 UIO_OUT_TT_PROJECT1
*318 UIO_OUT_TT_PROJECT2
*319 UIO_OUT_TT_PROJECT3
*320 UIO_OUT_TT_PROJECT4
*321 UIO_OUT_TT_PROJECT5
*322 UIO_OUT_TT_PROJECT6
*323 UIO_OUT_TT_PROJECT7
*324 UI_IN_TT_PROJECT0
*325 UI_IN_TT_PROJECT1
*326 UI_IN_TT_PROJECT2
*327 UI_IN_TT_PROJECT3
*328 UI_IN_TT_PROJECT4
*329 UI_IN_TT_PROJECT5
*330 UI_IN_TT_PROJECT6
*331 UI_IN_TT_PROJECT7
*332 UO_OUT_TT_PROJECT0
*333 UO_OUT_TT_PROJECT1
*334 UO_OUT_TT_PROJECT2
*335 UO_OUT_TT_PROJECT3
*336 UO_OUT_TT_PROJECT4
*337 UO_OUT_TT_PROJECT5
*338 UO_OUT_TT_PROJECT6
*339 UO_OUT_TT_PROJECT7
*340 UserCLK
*341 UserCLKo
*344 W1BEG[0]
*345 W1BEG[1]
*346 W1BEG[2]
*347 W1BEG[3]
*348 W2BEG[0]
*349 W2BEG[1]
*350 W2BEG[2]
*351 W2BEG[3]
*352 W2BEG[4]
*353 W2BEG[5]
*354 W2BEG[6]
*355 W2BEG[7]
*356 W2BEGb[0]
*357 W2BEGb[1]
*358 W2BEGb[2]
*359 W2BEGb[3]
*360 W2BEGb[4]
*361 W2BEGb[5]
*362 W2BEGb[6]
*363 W2BEGb[7]
*364 W6BEG[0]
*365 W6BEG[10]
*366 W6BEG[11]
*367 W6BEG[1]
*368 W6BEG[2]
*369 W6BEG[3]
*370 W6BEG[4]
*371 W6BEG[5]
*372 W6BEG[6]
*373 W6BEG[7]
*374 W6BEG[8]
*375 W6BEG[9]
*376 WW4BEG[0]
*377 WW4BEG[10]
*378 WW4BEG[11]
*379 WW4BEG[12]
*380 WW4BEG[13]
*381 WW4BEG[14]
*382 WW4BEG[15]
*383 WW4BEG[1]
*384 WW4BEG[2]
*385 WW4BEG[3]
*386 WW4BEG[4]
*387 WW4BEG[5]
*388 WW4BEG[6]
*389 WW4BEG[7]
*390 WW4BEG[8]
*391 WW4BEG[9]
*392 Inst_E_TT_IF_ConfigMem\.Inst_frame0_bit0\.Q
*393 Inst_E_TT_IF_ConfigMem\.Inst_frame0_bit1\.Q
*394 Inst_E_TT_IF_ConfigMem\.Inst_frame0_bit10\.Q
*395 Inst_E_TT_IF_ConfigMem\.Inst_frame0_bit11\.Q
*396 Inst_E_TT_IF_ConfigMem\.Inst_frame0_bit12\.Q
*397 Inst_E_TT_IF_ConfigMem\.Inst_frame0_bit13\.Q
*398 Inst_E_TT_IF_ConfigMem\.Inst_frame0_bit14\.Q
*399 Inst_E_TT_IF_ConfigMem\.Inst_frame0_bit15\.Q
*400 Inst_E_TT_IF_ConfigMem\.Inst_frame0_bit16\.Q
*401 Inst_E_TT_IF_ConfigMem\.Inst_frame0_bit17\.Q
*402 Inst_E_TT_IF_ConfigMem\.Inst_frame0_bit18\.Q
*403 Inst_E_TT_IF_ConfigMem\.Inst_frame0_bit19\.Q
*404 Inst_E_TT_IF_ConfigMem\.Inst_frame0_bit2\.Q
*405 Inst_E_TT_IF_ConfigMem\.Inst_frame0_bit20\.Q
*406 Inst_E_TT_IF_ConfigMem\.Inst_frame0_bit21\.Q
*407 Inst_E_TT_IF_ConfigMem\.Inst_frame0_bit22\.Q
*408 Inst_E_TT_IF_ConfigMem\.Inst_frame0_bit23\.Q
*409 Inst_E_TT_IF_ConfigMem\.Inst_frame0_bit24\.Q
*410 Inst_E_TT_IF_ConfigMem\.Inst_frame0_bit25\.Q
*411 Inst_E_TT_IF_ConfigMem\.Inst_frame0_bit26\.Q
*412 Inst_E_TT_IF_ConfigMem\.Inst_frame0_bit27\.Q
*413 Inst_E_TT_IF_ConfigMem\.Inst_frame0_bit28\.Q
*414 Inst_E_TT_IF_ConfigMem\.Inst_frame0_bit29\.Q
*415 Inst_E_TT_IF_ConfigMem\.Inst_frame0_bit3\.Q
*416 Inst_E_TT_IF_ConfigMem\.Inst_frame0_bit30\.Q
*417 Inst_E_TT_IF_ConfigMem\.Inst_frame0_bit31\.Q
*418 Inst_E_TT_IF_ConfigMem\.Inst_frame0_bit4\.Q
*419 Inst_E_TT_IF_ConfigMem\.Inst_frame0_bit5\.Q
*420 Inst_E_TT_IF_ConfigMem\.Inst_frame0_bit6\.Q
*421 Inst_E_TT_IF_ConfigMem\.Inst_frame0_bit7\.Q
*422 Inst_E_TT_IF_ConfigMem\.Inst_frame0_bit8\.Q
*423 Inst_E_TT_IF_ConfigMem\.Inst_frame0_bit9\.Q
*424 Inst_E_TT_IF_ConfigMem\.Inst_frame1_bit0\.Q
*425 Inst_E_TT_IF_ConfigMem\.Inst_frame1_bit1\.Q
*426 Inst_E_TT_IF_ConfigMem\.Inst_frame1_bit10\.Q
*427 Inst_E_TT_IF_ConfigMem\.Inst_frame1_bit11\.Q
*428 Inst_E_TT_IF_ConfigMem\.Inst_frame1_bit12\.Q
*429 Inst_E_TT_IF_ConfigMem\.Inst_frame1_bit13\.Q
*430 Inst_E_TT_IF_ConfigMem\.Inst_frame1_bit14\.Q
*431 Inst_E_TT_IF_ConfigMem\.Inst_frame1_bit15\.Q
*432 Inst_E_TT_IF_ConfigMem\.Inst_frame1_bit16\.Q
*433 Inst_E_TT_IF_ConfigMem\.Inst_frame1_bit17\.Q
*434 Inst_E_TT_IF_ConfigMem\.Inst_frame1_bit18\.Q
*435 Inst_E_TT_IF_ConfigMem\.Inst_frame1_bit19\.Q
*436 Inst_E_TT_IF_ConfigMem\.Inst_frame1_bit2\.Q
*437 Inst_E_TT_IF_ConfigMem\.Inst_frame1_bit20\.Q
*438 Inst_E_TT_IF_ConfigMem\.Inst_frame1_bit21\.Q
*439 Inst_E_TT_IF_ConfigMem\.Inst_frame1_bit22\.Q
*440 Inst_E_TT_IF_ConfigMem\.Inst_frame1_bit23\.Q
*441 Inst_E_TT_IF_ConfigMem\.Inst_frame1_bit24\.Q
*442 Inst_E_TT_IF_ConfigMem\.Inst_frame1_bit25\.Q
*443 Inst_E_TT_IF_ConfigMem\.Inst_frame1_bit26\.Q
*444 Inst_E_TT_IF_ConfigMem\.Inst_frame1_bit27\.Q
*445 Inst_E_TT_IF_ConfigMem\.Inst_frame1_bit28\.Q
*446 Inst_E_TT_IF_ConfigMem\.Inst_frame1_bit29\.Q
*447 Inst_E_TT_IF_ConfigMem\.Inst_frame1_bit3\.Q
*448 Inst_E_TT_IF_ConfigMem\.Inst_frame1_bit30\.Q
*449 Inst_E_TT_IF_ConfigMem\.Inst_frame1_bit31\.Q
*450 Inst_E_TT_IF_ConfigMem\.Inst_frame1_bit4\.Q
*451 Inst_E_TT_IF_ConfigMem\.Inst_frame1_bit5\.Q
*452 Inst_E_TT_IF_ConfigMem\.Inst_frame1_bit6\.Q
*453 Inst_E_TT_IF_ConfigMem\.Inst_frame1_bit7\.Q
*454 Inst_E_TT_IF_ConfigMem\.Inst_frame1_bit8\.Q
*455 Inst_E_TT_IF_ConfigMem\.Inst_frame1_bit9\.Q
*456 Inst_E_TT_IF_ConfigMem\.Inst_frame2_bit0\.Q
*457 Inst_E_TT_IF_ConfigMem\.Inst_frame2_bit1\.Q
*458 Inst_E_TT_IF_ConfigMem\.Inst_frame2_bit10\.Q
*459 Inst_E_TT_IF_ConfigMem\.Inst_frame2_bit11\.Q
*460 Inst_E_TT_IF_ConfigMem\.Inst_frame2_bit12\.Q
*461 Inst_E_TT_IF_ConfigMem\.Inst_frame2_bit13\.Q
*462 Inst_E_TT_IF_ConfigMem\.Inst_frame2_bit14\.Q
*463 Inst_E_TT_IF_ConfigMem\.Inst_frame2_bit15\.Q
*464 Inst_E_TT_IF_ConfigMem\.Inst_frame2_bit16\.Q
*465 Inst_E_TT_IF_ConfigMem\.Inst_frame2_bit17\.Q
*466 Inst_E_TT_IF_ConfigMem\.Inst_frame2_bit18\.Q
*467 Inst_E_TT_IF_ConfigMem\.Inst_frame2_bit19\.Q
*468 Inst_E_TT_IF_ConfigMem\.Inst_frame2_bit2\.Q
*469 Inst_E_TT_IF_ConfigMem\.Inst_frame2_bit20\.Q
*470 Inst_E_TT_IF_ConfigMem\.Inst_frame2_bit21\.Q
*471 Inst_E_TT_IF_ConfigMem\.Inst_frame2_bit22\.Q
*472 Inst_E_TT_IF_ConfigMem\.Inst_frame2_bit23\.Q
*473 Inst_E_TT_IF_ConfigMem\.Inst_frame2_bit24\.Q
*474 Inst_E_TT_IF_ConfigMem\.Inst_frame2_bit25\.Q
*475 Inst_E_TT_IF_ConfigMem\.Inst_frame2_bit26\.Q
*476 Inst_E_TT_IF_ConfigMem\.Inst_frame2_bit27\.Q
*477 Inst_E_TT_IF_ConfigMem\.Inst_frame2_bit28\.Q
*478 Inst_E_TT_IF_ConfigMem\.Inst_frame2_bit29\.Q
*479 Inst_E_TT_IF_ConfigMem\.Inst_frame2_bit3\.Q
*480 Inst_E_TT_IF_ConfigMem\.Inst_frame2_bit30\.Q
*481 Inst_E_TT_IF_ConfigMem\.Inst_frame2_bit31\.Q
*482 Inst_E_TT_IF_ConfigMem\.Inst_frame2_bit4\.Q
*483 Inst_E_TT_IF_ConfigMem\.Inst_frame2_bit5\.Q
*484 Inst_E_TT_IF_ConfigMem\.Inst_frame2_bit6\.Q
*485 Inst_E_TT_IF_ConfigMem\.Inst_frame2_bit7\.Q
*486 Inst_E_TT_IF_ConfigMem\.Inst_frame2_bit8\.Q
*487 Inst_E_TT_IF_ConfigMem\.Inst_frame2_bit9\.Q
*488 Inst_E_TT_IF_ConfigMem\.Inst_frame3_bit0\.Q
*489 Inst_E_TT_IF_ConfigMem\.Inst_frame3_bit1\.Q
*490 Inst_E_TT_IF_ConfigMem\.Inst_frame3_bit10\.Q
*491 Inst_E_TT_IF_ConfigMem\.Inst_frame3_bit11\.Q
*492 Inst_E_TT_IF_ConfigMem\.Inst_frame3_bit12\.Q
*493 Inst_E_TT_IF_ConfigMem\.Inst_frame3_bit13\.Q
*494 Inst_E_TT_IF_ConfigMem\.Inst_frame3_bit14\.Q
*495 Inst_E_TT_IF_ConfigMem\.Inst_frame3_bit15\.Q
*496 Inst_E_TT_IF_ConfigMem\.Inst_frame3_bit16\.Q
*497 Inst_E_TT_IF_ConfigMem\.Inst_frame3_bit17\.Q
*498 Inst_E_TT_IF_ConfigMem\.Inst_frame3_bit18\.Q
*499 Inst_E_TT_IF_ConfigMem\.Inst_frame3_bit19\.Q
*500 Inst_E_TT_IF_ConfigMem\.Inst_frame3_bit2\.Q
*501 Inst_E_TT_IF_ConfigMem\.Inst_frame3_bit20\.Q
*502 Inst_E_TT_IF_ConfigMem\.Inst_frame3_bit21\.Q
*503 Inst_E_TT_IF_ConfigMem\.Inst_frame3_bit22\.Q
*504 Inst_E_TT_IF_ConfigMem\.Inst_frame3_bit23\.Q
*505 Inst_E_TT_IF_ConfigMem\.Inst_frame3_bit24\.Q
*506 Inst_E_TT_IF_ConfigMem\.Inst_frame3_bit25\.Q
*507 Inst_E_TT_IF_ConfigMem\.Inst_frame3_bit26\.Q
*508 Inst_E_TT_IF_ConfigMem\.Inst_frame3_bit27\.Q
*509 Inst_E_TT_IF_ConfigMem\.Inst_frame3_bit28\.Q
*510 Inst_E_TT_IF_ConfigMem\.Inst_frame3_bit29\.Q
*511 Inst_E_TT_IF_ConfigMem\.Inst_frame3_bit3\.Q
*512 Inst_E_TT_IF_ConfigMem\.Inst_frame3_bit30\.Q
*513 Inst_E_TT_IF_ConfigMem\.Inst_frame3_bit31\.Q
*514 Inst_E_TT_IF_ConfigMem\.Inst_frame3_bit4\.Q
*515 Inst_E_TT_IF_ConfigMem\.Inst_frame3_bit5\.Q
*516 Inst_E_TT_IF_ConfigMem\.Inst_frame3_bit6\.Q
*517 Inst_E_TT_IF_ConfigMem\.Inst_frame3_bit7\.Q
*518 Inst_E_TT_IF_ConfigMem\.Inst_frame3_bit8\.Q
*519 Inst_E_TT_IF_ConfigMem\.Inst_frame3_bit9\.Q
*520 Inst_E_TT_IF_ConfigMem\.Inst_frame4_bit0\.Q
*521 Inst_E_TT_IF_ConfigMem\.Inst_frame4_bit1\.Q
*522 Inst_E_TT_IF_ConfigMem\.Inst_frame4_bit10\.Q
*523 Inst_E_TT_IF_ConfigMem\.Inst_frame4_bit11\.Q
*524 Inst_E_TT_IF_ConfigMem\.Inst_frame4_bit12\.Q
*525 Inst_E_TT_IF_ConfigMem\.Inst_frame4_bit13\.Q
*526 Inst_E_TT_IF_ConfigMem\.Inst_frame4_bit14\.Q
*527 Inst_E_TT_IF_ConfigMem\.Inst_frame4_bit15\.Q
*528 Inst_E_TT_IF_ConfigMem\.Inst_frame4_bit16\.Q
*529 Inst_E_TT_IF_ConfigMem\.Inst_frame4_bit17\.Q
*530 Inst_E_TT_IF_ConfigMem\.Inst_frame4_bit18\.Q
*531 Inst_E_TT_IF_ConfigMem\.Inst_frame4_bit19\.Q
*532 Inst_E_TT_IF_ConfigMem\.Inst_frame4_bit2\.Q
*533 Inst_E_TT_IF_ConfigMem\.Inst_frame4_bit20\.Q
*534 Inst_E_TT_IF_ConfigMem\.Inst_frame4_bit21\.Q
*535 Inst_E_TT_IF_ConfigMem\.Inst_frame4_bit22\.Q
*536 Inst_E_TT_IF_ConfigMem\.Inst_frame4_bit23\.Q
*537 Inst_E_TT_IF_ConfigMem\.Inst_frame4_bit24\.Q
*538 Inst_E_TT_IF_ConfigMem\.Inst_frame4_bit25\.Q
*539 Inst_E_TT_IF_ConfigMem\.Inst_frame4_bit26\.Q
*540 Inst_E_TT_IF_ConfigMem\.Inst_frame4_bit27\.Q
*541 Inst_E_TT_IF_ConfigMem\.Inst_frame4_bit28\.Q
*542 Inst_E_TT_IF_ConfigMem\.Inst_frame4_bit29\.Q
*543 Inst_E_TT_IF_ConfigMem\.Inst_frame4_bit3\.Q
*544 Inst_E_TT_IF_ConfigMem\.Inst_frame4_bit30\.Q
*545 Inst_E_TT_IF_ConfigMem\.Inst_frame4_bit31\.Q
*546 Inst_E_TT_IF_ConfigMem\.Inst_frame4_bit4\.Q
*547 Inst_E_TT_IF_ConfigMem\.Inst_frame4_bit5\.Q
*548 Inst_E_TT_IF_ConfigMem\.Inst_frame4_bit6\.Q
*549 Inst_E_TT_IF_ConfigMem\.Inst_frame4_bit7\.Q
*550 Inst_E_TT_IF_ConfigMem\.Inst_frame4_bit8\.Q
*551 Inst_E_TT_IF_ConfigMem\.Inst_frame4_bit9\.Q
*552 Inst_E_TT_IF_ConfigMem\.Inst_frame5_bit0\.Q
*553 Inst_E_TT_IF_ConfigMem\.Inst_frame5_bit1\.Q
*554 Inst_E_TT_IF_ConfigMem\.Inst_frame5_bit10\.Q
*555 Inst_E_TT_IF_ConfigMem\.Inst_frame5_bit11\.Q
*556 Inst_E_TT_IF_ConfigMem\.Inst_frame5_bit12\.Q
*557 Inst_E_TT_IF_ConfigMem\.Inst_frame5_bit13\.Q
*558 Inst_E_TT_IF_ConfigMem\.Inst_frame5_bit14\.Q
*559 Inst_E_TT_IF_ConfigMem\.Inst_frame5_bit15\.Q
*560 Inst_E_TT_IF_ConfigMem\.Inst_frame5_bit16\.Q
*561 Inst_E_TT_IF_ConfigMem\.Inst_frame5_bit17\.Q
*562 Inst_E_TT_IF_ConfigMem\.Inst_frame5_bit18\.Q
*563 Inst_E_TT_IF_ConfigMem\.Inst_frame5_bit19\.Q
*564 Inst_E_TT_IF_ConfigMem\.Inst_frame5_bit2\.Q
*565 Inst_E_TT_IF_ConfigMem\.Inst_frame5_bit20\.Q
*566 Inst_E_TT_IF_ConfigMem\.Inst_frame5_bit21\.Q
*567 Inst_E_TT_IF_ConfigMem\.Inst_frame5_bit22\.Q
*568 Inst_E_TT_IF_ConfigMem\.Inst_frame5_bit23\.Q
*569 Inst_E_TT_IF_ConfigMem\.Inst_frame5_bit24\.Q
*570 Inst_E_TT_IF_ConfigMem\.Inst_frame5_bit25\.Q
*571 Inst_E_TT_IF_ConfigMem\.Inst_frame5_bit26\.Q
*572 Inst_E_TT_IF_ConfigMem\.Inst_frame5_bit27\.Q
*573 Inst_E_TT_IF_ConfigMem\.Inst_frame5_bit28\.Q
*574 Inst_E_TT_IF_ConfigMem\.Inst_frame5_bit29\.Q
*575 Inst_E_TT_IF_ConfigMem\.Inst_frame5_bit3\.Q
*576 Inst_E_TT_IF_ConfigMem\.Inst_frame5_bit30\.Q
*577 Inst_E_TT_IF_ConfigMem\.Inst_frame5_bit31\.Q
*578 Inst_E_TT_IF_ConfigMem\.Inst_frame5_bit4\.Q
*579 Inst_E_TT_IF_ConfigMem\.Inst_frame5_bit5\.Q
*580 Inst_E_TT_IF_ConfigMem\.Inst_frame5_bit6\.Q
*581 Inst_E_TT_IF_ConfigMem\.Inst_frame5_bit7\.Q
*582 Inst_E_TT_IF_ConfigMem\.Inst_frame5_bit8\.Q
*583 Inst_E_TT_IF_ConfigMem\.Inst_frame5_bit9\.Q
*584 Inst_E_TT_IF_ConfigMem\.Inst_frame6_bit0\.Q
*585 Inst_E_TT_IF_ConfigMem\.Inst_frame6_bit1\.Q
*586 Inst_E_TT_IF_ConfigMem\.Inst_frame6_bit10\.Q
*587 Inst_E_TT_IF_ConfigMem\.Inst_frame6_bit11\.Q
*588 Inst_E_TT_IF_ConfigMem\.Inst_frame6_bit12\.Q
*589 Inst_E_TT_IF_ConfigMem\.Inst_frame6_bit13\.Q
*590 Inst_E_TT_IF_ConfigMem\.Inst_frame6_bit14\.Q
*591 Inst_E_TT_IF_ConfigMem\.Inst_frame6_bit15\.Q
*592 Inst_E_TT_IF_ConfigMem\.Inst_frame6_bit16\.Q
*593 Inst_E_TT_IF_ConfigMem\.Inst_frame6_bit17\.Q
*594 Inst_E_TT_IF_ConfigMem\.Inst_frame6_bit18\.Q
*595 Inst_E_TT_IF_ConfigMem\.Inst_frame6_bit19\.Q
*596 Inst_E_TT_IF_ConfigMem\.Inst_frame6_bit2\.Q
*597 Inst_E_TT_IF_ConfigMem\.Inst_frame6_bit20\.Q
*598 Inst_E_TT_IF_ConfigMem\.Inst_frame6_bit21\.Q
*599 Inst_E_TT_IF_ConfigMem\.Inst_frame6_bit22\.Q
*600 Inst_E_TT_IF_ConfigMem\.Inst_frame6_bit23\.Q
*601 Inst_E_TT_IF_ConfigMem\.Inst_frame6_bit24\.Q
*602 Inst_E_TT_IF_ConfigMem\.Inst_frame6_bit25\.Q
*603 Inst_E_TT_IF_ConfigMem\.Inst_frame6_bit26\.Q
*604 Inst_E_TT_IF_ConfigMem\.Inst_frame6_bit27\.Q
*605 Inst_E_TT_IF_ConfigMem\.Inst_frame6_bit28\.Q
*606 Inst_E_TT_IF_ConfigMem\.Inst_frame6_bit29\.Q
*607 Inst_E_TT_IF_ConfigMem\.Inst_frame6_bit3\.Q
*608 Inst_E_TT_IF_ConfigMem\.Inst_frame6_bit30\.Q
*609 Inst_E_TT_IF_ConfigMem\.Inst_frame6_bit31\.Q
*610 Inst_E_TT_IF_ConfigMem\.Inst_frame6_bit4\.Q
*611 Inst_E_TT_IF_ConfigMem\.Inst_frame6_bit5\.Q
*612 Inst_E_TT_IF_ConfigMem\.Inst_frame6_bit6\.Q
*613 Inst_E_TT_IF_ConfigMem\.Inst_frame6_bit7\.Q
*614 Inst_E_TT_IF_ConfigMem\.Inst_frame6_bit8\.Q
*615 Inst_E_TT_IF_ConfigMem\.Inst_frame6_bit9\.Q
*616 Inst_E_TT_IF_ConfigMem\.Inst_frame7_bit0\.Q
*617 Inst_E_TT_IF_ConfigMem\.Inst_frame7_bit1\.Q
*618 Inst_E_TT_IF_ConfigMem\.Inst_frame7_bit10\.Q
*619 Inst_E_TT_IF_ConfigMem\.Inst_frame7_bit11\.Q
*620 Inst_E_TT_IF_ConfigMem\.Inst_frame7_bit12\.Q
*621 Inst_E_TT_IF_ConfigMem\.Inst_frame7_bit13\.Q
*622 Inst_E_TT_IF_ConfigMem\.Inst_frame7_bit14\.Q
*623 Inst_E_TT_IF_ConfigMem\.Inst_frame7_bit15\.Q
*624 Inst_E_TT_IF_ConfigMem\.Inst_frame7_bit16\.Q
*625 Inst_E_TT_IF_ConfigMem\.Inst_frame7_bit17\.Q
*626 Inst_E_TT_IF_ConfigMem\.Inst_frame7_bit18\.Q
*627 Inst_E_TT_IF_ConfigMem\.Inst_frame7_bit19\.Q
*628 Inst_E_TT_IF_ConfigMem\.Inst_frame7_bit2\.Q
*629 Inst_E_TT_IF_ConfigMem\.Inst_frame7_bit20\.Q
*630 Inst_E_TT_IF_ConfigMem\.Inst_frame7_bit21\.Q
*631 Inst_E_TT_IF_ConfigMem\.Inst_frame7_bit22\.Q
*632 Inst_E_TT_IF_ConfigMem\.Inst_frame7_bit23\.Q
*633 Inst_E_TT_IF_ConfigMem\.Inst_frame7_bit24\.Q
*634 Inst_E_TT_IF_ConfigMem\.Inst_frame7_bit25\.Q
*635 Inst_E_TT_IF_ConfigMem\.Inst_frame7_bit26\.Q
*636 Inst_E_TT_IF_ConfigMem\.Inst_frame7_bit27\.Q
*637 Inst_E_TT_IF_ConfigMem\.Inst_frame7_bit28\.Q
*638 Inst_E_TT_IF_ConfigMem\.Inst_frame7_bit29\.Q
*639 Inst_E_TT_IF_ConfigMem\.Inst_frame7_bit3\.Q
*640 Inst_E_TT_IF_ConfigMem\.Inst_frame7_bit30\.Q
*641 Inst_E_TT_IF_ConfigMem\.Inst_frame7_bit31\.Q
*642 Inst_E_TT_IF_ConfigMem\.Inst_frame7_bit4\.Q
*643 Inst_E_TT_IF_ConfigMem\.Inst_frame7_bit5\.Q
*644 Inst_E_TT_IF_ConfigMem\.Inst_frame7_bit6\.Q
*645 Inst_E_TT_IF_ConfigMem\.Inst_frame7_bit7\.Q
*646 Inst_E_TT_IF_ConfigMem\.Inst_frame7_bit8\.Q
*647 Inst_E_TT_IF_ConfigMem\.Inst_frame7_bit9\.Q
*648 Inst_E_TT_IF_ConfigMem\.Inst_frame8_bit10\.Q
*649 Inst_E_TT_IF_ConfigMem\.Inst_frame8_bit11\.Q
*650 Inst_E_TT_IF_ConfigMem\.Inst_frame8_bit12\.Q
*651 Inst_E_TT_IF_ConfigMem\.Inst_frame8_bit13\.Q
*652 Inst_E_TT_IF_ConfigMem\.Inst_frame8_bit14\.Q
*653 Inst_E_TT_IF_ConfigMem\.Inst_frame8_bit15\.Q
*654 Inst_E_TT_IF_ConfigMem\.Inst_frame8_bit16\.Q
*655 Inst_E_TT_IF_ConfigMem\.Inst_frame8_bit17\.Q
*656 Inst_E_TT_IF_ConfigMem\.Inst_frame8_bit18\.Q
*657 Inst_E_TT_IF_ConfigMem\.Inst_frame8_bit19\.Q
*658 Inst_E_TT_IF_ConfigMem\.Inst_frame8_bit20\.Q
*659 Inst_E_TT_IF_ConfigMem\.Inst_frame8_bit21\.Q
*660 Inst_E_TT_IF_ConfigMem\.Inst_frame8_bit22\.Q
*661 Inst_E_TT_IF_ConfigMem\.Inst_frame8_bit23\.Q
*662 Inst_E_TT_IF_ConfigMem\.Inst_frame8_bit24\.Q
*663 Inst_E_TT_IF_ConfigMem\.Inst_frame8_bit25\.Q
*664 Inst_E_TT_IF_ConfigMem\.Inst_frame8_bit26\.Q
*665 Inst_E_TT_IF_ConfigMem\.Inst_frame8_bit27\.Q
*666 Inst_E_TT_IF_ConfigMem\.Inst_frame8_bit28\.Q
*667 Inst_E_TT_IF_ConfigMem\.Inst_frame8_bit29\.Q
*668 Inst_E_TT_IF_ConfigMem\.Inst_frame8_bit30\.Q
*669 Inst_E_TT_IF_ConfigMem\.Inst_frame8_bit31\.Q
*670 Inst_E_TT_IF_switch_matrix\.N1BEG0
*671 Inst_E_TT_IF_switch_matrix\.N1BEG1
*672 Inst_E_TT_IF_switch_matrix\.N1BEG2
*673 Inst_E_TT_IF_switch_matrix\.N1BEG3
*674 Inst_E_TT_IF_switch_matrix\.N2BEG0
*675 Inst_E_TT_IF_switch_matrix\.N2BEG1
*676 Inst_E_TT_IF_switch_matrix\.N2BEG2
*677 Inst_E_TT_IF_switch_matrix\.N2BEG3
*678 Inst_E_TT_IF_switch_matrix\.N2BEG4
*679 Inst_E_TT_IF_switch_matrix\.N2BEG5
*680 Inst_E_TT_IF_switch_matrix\.N2BEG6
*681 Inst_E_TT_IF_switch_matrix\.N2BEG7
*682 Inst_E_TT_IF_switch_matrix\.N4BEG0
*683 Inst_E_TT_IF_switch_matrix\.N4BEG1
*684 Inst_E_TT_IF_switch_matrix\.N4BEG2
*685 Inst_E_TT_IF_switch_matrix\.N4BEG3
*686 Inst_E_TT_IF_switch_matrix\.S1BEG0
*687 Inst_E_TT_IF_switch_matrix\.S1BEG1
*688 Inst_E_TT_IF_switch_matrix\.S1BEG2
*689 Inst_E_TT_IF_switch_matrix\.S1BEG3
*690 Inst_E_TT_IF_switch_matrix\.S2BEG0
*691 Inst_E_TT_IF_switch_matrix\.S2BEG1
*692 Inst_E_TT_IF_switch_matrix\.S2BEG2
*693 Inst_E_TT_IF_switch_matrix\.S2BEG3
*694 Inst_E_TT_IF_switch_matrix\.S2BEG4
*695 Inst_E_TT_IF_switch_matrix\.S2BEG5
*696 Inst_E_TT_IF_switch_matrix\.S2BEG6
*697 Inst_E_TT_IF_switch_matrix\.S2BEG7
*698 Inst_E_TT_IF_switch_matrix\.S4BEG0
*699 Inst_E_TT_IF_switch_matrix\.S4BEG1
*700 Inst_E_TT_IF_switch_matrix\.S4BEG2
*701 Inst_E_TT_IF_switch_matrix\.S4BEG3
*702 Inst_E_TT_IF_switch_matrix\.W1BEG0
*703 Inst_E_TT_IF_switch_matrix\.W1BEG1
*704 Inst_E_TT_IF_switch_matrix\.W1BEG2
*705 Inst_E_TT_IF_switch_matrix\.W1BEG3
*706 Inst_E_TT_IF_switch_matrix\.W2BEG0
*707 Inst_E_TT_IF_switch_matrix\.W2BEG1
*708 Inst_E_TT_IF_switch_matrix\.W2BEG2
*709 Inst_E_TT_IF_switch_matrix\.W2BEG3
*710 Inst_E_TT_IF_switch_matrix\.W2BEG4
*711 Inst_E_TT_IF_switch_matrix\.W2BEG5
*712 Inst_E_TT_IF_switch_matrix\.W2BEG6
*713 Inst_E_TT_IF_switch_matrix\.W2BEG7
*714 Inst_E_TT_IF_switch_matrix\.W2BEGb0
*715 Inst_E_TT_IF_switch_matrix\.W2BEGb1
*716 Inst_E_TT_IF_switch_matrix\.W2BEGb2
*717 Inst_E_TT_IF_switch_matrix\.W2BEGb3
*718 Inst_E_TT_IF_switch_matrix\.W2BEGb4
*719 Inst_E_TT_IF_switch_matrix\.W2BEGb5
*720 Inst_E_TT_IF_switch_matrix\.W2BEGb6
*721 Inst_E_TT_IF_switch_matrix\.W2BEGb7
*722 Inst_E_TT_IF_switch_matrix\.W6BEG0
*723 Inst_E_TT_IF_switch_matrix\.W6BEG1
*724 Inst_E_TT_IF_switch_matrix\.W6BEG10
*725 Inst_E_TT_IF_switch_matrix\.W6BEG11
*726 Inst_E_TT_IF_switch_matrix\.W6BEG2
*727 Inst_E_TT_IF_switch_matrix\.W6BEG3
*728 Inst_E_TT_IF_switch_matrix\.W6BEG4
*729 Inst_E_TT_IF_switch_matrix\.W6BEG5
*730 Inst_E_TT_IF_switch_matrix\.W6BEG6
*731 Inst_E_TT_IF_switch_matrix\.W6BEG7
*732 Inst_E_TT_IF_switch_matrix\.W6BEG8
*733 Inst_E_TT_IF_switch_matrix\.W6BEG9
*734 Inst_E_TT_IF_switch_matrix\.WW4BEG0
*735 Inst_E_TT_IF_switch_matrix\.WW4BEG1
*736 Inst_E_TT_IF_switch_matrix\.WW4BEG10
*737 Inst_E_TT_IF_switch_matrix\.WW4BEG11
*738 Inst_E_TT_IF_switch_matrix\.WW4BEG12
*739 Inst_E_TT_IF_switch_matrix\.WW4BEG13
*740 Inst_E_TT_IF_switch_matrix\.WW4BEG14
*741 Inst_E_TT_IF_switch_matrix\.WW4BEG15
*742 Inst_E_TT_IF_switch_matrix\.WW4BEG2
*743 Inst_E_TT_IF_switch_matrix\.WW4BEG3
*744 Inst_E_TT_IF_switch_matrix\.WW4BEG4
*745 Inst_E_TT_IF_switch_matrix\.WW4BEG5
*746 Inst_E_TT_IF_switch_matrix\.WW4BEG6
*747 Inst_E_TT_IF_switch_matrix\.WW4BEG7
*748 Inst_E_TT_IF_switch_matrix\.WW4BEG8
*749 Inst_E_TT_IF_switch_matrix\.WW4BEG9
*750 _000_
*751 _001_
*752 _002_
*753 _003_
*754 _004_
*755 _005_
*756 _006_
*757 _007_
*758 _008_
*759 _009_
*760 _010_
*761 _011_
*762 _012_
*763 _013_
*764 _014_
*765 _015_
*766 _016_
*767 _017_
*768 _018_
*769 _019_
*770 _020_
*771 _021_
*772 _022_
*773 _023_
*774 _024_
*775 _025_
*776 _026_
*777 _027_
*778 _028_
*779 _029_
*780 _030_
*781 _031_
*782 _032_
*783 _033_
*784 _034_
*785 _035_
*786 _036_
*787 _037_
*788 _038_
*789 _039_
*790 _040_
*791 _041_
*792 _042_
*793 _043_
*794 _044_
*795 _045_
*796 _046_
*797 _047_
*798 _048_
*799 _049_
*800 _050_
*801 _051_
*802 _052_
*803 _053_
*804 _054_
*805 _055_
*806 _056_
*807 _057_
*808 _058_
*809 _059_
*810 _060_
*811 _061_
*812 _062_
*813 _063_
*814 _064_
*815 _065_
*816 _066_
*817 _067_
*818 _068_
*819 _069_
*820 _070_
*821 _071_
*822 _072_
*823 _073_
*824 _074_
*825 _075_
*826 _076_
*827 _077_
*828 _078_
*829 _079_
*830 _080_
*831 _081_
*832 _082_
*833 _083_
*834 _084_
*835 _085_
*836 _086_
*837 _087_
*838 _088_
*839 _089_
*840 _090_
*841 _091_
*842 _092_
*843 _093_
*844 _094_
*845 _095_
*846 _096_
*847 _097_
*848 _098_
*849 _099_
*850 _100_
*851 _101_
*852 _102_
*853 _103_
*854 _104_
*855 _105_
*856 _106_
*857 _107_
*858 _108_
*859 _109_
*860 _110_
*861 _111_
*862 _112_
*863 _113_
*864 _114_
*865 _115_
*866 _116_
*867 _117_
*868 _118_
*869 _119_
*870 _120_
*871 _121_
*872 _122_
*873 _123_
*874 _124_
*875 _125_
*876 _126_
*877 _127_
*878 _128_
*879 _129_
*880 _130_
*881 _131_
*882 _132_
*883 _133_
*884 _134_
*885 _135_
*886 _136_
*887 _137_
*888 _138_
*889 _139_
*890 _140_
*891 _141_
*892 _142_
*893 _143_
*894 _144_
*895 _145_
*896 _146_
*897 _147_
*898 _148_
*899 _149_
*900 _150_
*901 _151_
*902 _152_
*903 _153_
*904 _154_
*905 _155_
*906 _156_
*907 _157_
*908 _158_
*909 _159_
*910 _160_
*911 _161_
*912 _162_
*913 _163_
*914 _164_
*915 _165_
*916 _166_
*917 _167_
*918 _168_
*919 _169_
*920 _170_
*921 _171_
*922 _172_
*923 _173_
*924 _174_
*925 _175_
*926 _176_
*927 _177_
*928 _178_
*929 _179_
*930 _180_
*931 _181_
*932 _182_
*933 _183_
*934 _184_
*935 _185_
*936 _186_
*937 _187_
*938 _188_
*939 _189_
*940 _190_
*941 _191_
*942 _192_
*943 _193_
*944 _194_
*945 _195_
*946 _196_
*947 _197_
*948 _198_
*949 _199_
*950 _200_
*951 _201_
*952 _202_
*953 _203_
*954 _204_
*955 _205_
*956 _206_
*957 _207_
*958 _208_
*959 clknet_0_UserCLK
*960 clknet_1_0__leaf_UserCLK
*961 clknet_1_1__leaf_UserCLK
*962 ANTENNA_1
*963 ANTENNA_10
*964 ANTENNA_11
*965 ANTENNA_12
*966 ANTENNA_13
*967 ANTENNA_14
*968 ANTENNA_15
*969 ANTENNA_16
*970 ANTENNA_17
*971 ANTENNA_18
*972 ANTENNA_19
*973 ANTENNA_2
*974 ANTENNA_20
*975 ANTENNA_21
*976 ANTENNA_22
*977 ANTENNA_23
*978 ANTENNA_24
*979 ANTENNA_25
*980 ANTENNA_26
*981 ANTENNA_27
*982 ANTENNA_28
*983 ANTENNA_29
*984 ANTENNA_3
*985 ANTENNA_4
*986 ANTENNA_5
*987 ANTENNA_6
*988 ANTENNA_7
*989 ANTENNA_8
*990 ANTENNA_9
*991 FILLER_0_0
*992 FILLER_0_108
*993 FILLER_0_115
*994 FILLER_0_133
*995 FILLER_0_146
*996 FILLER_0_165
*997 FILLER_0_170
*998 FILLER_0_181
*999 FILLER_0_188
*1000 FILLER_0_19
*1001 FILLER_0_195
*1002 FILLER_0_199
*1003 FILLER_0_2
*1004 FILLER_0_42
*1005 FILLER_0_60
*1006 FILLER_0_64
*1007 FILLER_0_90
*1008 FILLER_10_0
*1009 FILLER_10_106
*1010 FILLER_10_125
*1011 FILLER_10_19
*1012 FILLER_10_199
*1013 FILLER_10_2
*1014 FILLER_10_23
*1015 FILLER_10_41
*1016 FILLER_10_45
*1017 FILLER_10_80
*1018 FILLER_10_87
*1019 FILLER_11_0
*1020 FILLER_11_100
*1021 FILLER_11_122
*1022 FILLER_11_129
*1023 FILLER_11_153
*1024 FILLER_11_188
*1025 FILLER_11_193
*1026 FILLER_11_2
*1027 FILLER_11_24
*1028 FILLER_11_46
*1029 FILLER_11_53
*1030 FILLER_11_60
*1031 FILLER_12_0
*1032 FILLER_12_100
*1033 FILLER_12_102
*1034 FILLER_12_141
*1035 FILLER_12_173
*1036 FILLER_12_196
*1037 FILLER_12_2
*1038 FILLER_12_41
*1039 FILLER_13_104
*1040 FILLER_13_125
*1041 FILLER_13_132
*1042 FILLER_13_134
*1043 FILLER_13_156
*1044 FILLER_13_163
*1045 FILLER_13_199
*1046 FILLER_13_21
*1047 FILLER_13_83
*1048 FILLER_14_0
*1049 FILLER_14_11
*1050 FILLER_14_112
*1051 FILLER_14_119
*1052 FILLER_14_126
*1053 FILLER_14_13
*1054 FILLER_14_130
*1055 FILLER_14_149
*1056 FILLER_14_151
*1057 FILLER_14_169
*1058 FILLER_14_176
*1059 FILLER_14_199
*1060 FILLER_14_2
*1061 FILLER_14_35
*1062 FILLER_14_39
*1063 FILLER_15_0
*1064 FILLER_15_103
*1065 FILLER_15_107
*1066 FILLER_15_11
*1067 FILLER_15_142
*1068 FILLER_15_167
*1069 FILLER_15_174
*1070 FILLER_15_181
*1071 FILLER_15_199
*1072 FILLER_15_2
*1073 FILLER_15_47
*1074 FILLER_15_54
*1075 FILLER_15_61
*1076 FILLER_16_0
*1077 FILLER_16_118
*1078 FILLER_16_160
*1079 FILLER_16_199
*1080 FILLER_16_47
*1081 FILLER_16_54
*1082 FILLER_16_58
*1083 FILLER_16_77
*1084 FILLER_16_95
*1085 FILLER_16_99
*1086 FILLER_17_0
*1087 FILLER_17_113
*1088 FILLER_17_148
*1089 FILLER_17_188
*1090 FILLER_17_195
*1091 FILLER_17_199
*1092 FILLER_17_2
*1093 FILLER_17_32
*1094 FILLER_17_39
*1095 FILLER_17_78
*1096 FILLER_17_85
*1097 FILLER_18_0
*1098 FILLER_18_11
*1099 FILLER_18_113
*1100 FILLER_18_120
*1101 FILLER_18_127
*1102 FILLER_18_13
*1103 FILLER_18_149
*1104 FILLER_18_170
*1105 FILLER_18_198
*1106 FILLER_18_2
*1107 FILLER_18_35
*1108 FILLER_18_39
*1109 FILLER_18_53
*1110 FILLER_18_89
*1111 FILLER_18_91
*1112 FILLER_19_123
*1113 FILLER_19_130
*1114 FILLER_19_149
*1115 FILLER_19_17
*1116 FILLER_19_177
*1117 FILLER_19_179
*1118 FILLER_19_19
*1119 FILLER_19_197
*1120 FILLER_19_199
*1121 FILLER_19_25
*1122 FILLER_19_82
*1123 FILLER_1_0
*1124 FILLER_1_112
*1125 FILLER_1_179
*1126 FILLER_1_197
*1127 FILLER_1_199
*1128 FILLER_1_53
*1129 FILLER_20_0
*1130 FILLER_20_107
*1131 FILLER_20_2
*1132 FILLER_20_30
*1133 FILLER_20_57
*1134 FILLER_20_81
*1135 FILLER_20_85
*1136 FILLER_21_0
*1137 FILLER_21_130
*1138 FILLER_21_137
*1139 FILLER_21_144
*1140 FILLER_21_148
*1141 FILLER_21_166
*1142 FILLER_21_173
*1143 FILLER_21_18
*1144 FILLER_21_58
*1145 FILLER_21_65
*1146 FILLER_21_72
*1147 FILLER_21_91
*1148 FILLER_21_95
*1149 FILLER_22_108
*1150 FILLER_22_133
*1151 FILLER_22_152
*1152 FILLER_22_159
*1153 FILLER_22_161
*1154 FILLER_22_17
*1155 FILLER_22_82
*1156 FILLER_22_86
*1157 FILLER_23_0
*1158 FILLER_23_109
*1159 FILLER_23_151