* NGSPICE file created from heichips25_example_small.ext - technology: ihp-sg13g2

* Black-box entry subcircuit for sg13g2_decap_8 abstract view
.subckt sg13g2_decap_8 VDD VSS
.ends

* Black-box entry subcircuit for sg13g2_decap_4 abstract view
.subckt sg13g2_decap_4 VDD VSS
.ends

* Black-box entry subcircuit for sg13g2_nand2_1 abstract view
.subckt sg13g2_nand2_1 Y A B VDD VSS
.ends

* Black-box entry subcircuit for sg13g2_buf_1 abstract view
.subckt sg13g2_buf_1 A X VDD VSS
.ends

* Black-box entry subcircuit for sg13g2_fill_2 abstract view
.subckt sg13g2_fill_2 VDD VSS
.ends

* Black-box entry subcircuit for sg13g2_xor2_1 abstract view
.subckt sg13g2_xor2_1 B A X VDD VSS
.ends

* Black-box entry subcircuit for sg13g2_inv_1 abstract view
.subckt sg13g2_inv_1 VDD Y A VSS
.ends

* Black-box entry subcircuit for sg13g2_fill_1 abstract view
.subckt sg13g2_fill_1 VDD VSS
.ends

* Black-box entry subcircuit for sg13g2_xnor2_1 abstract view
.subckt sg13g2_xnor2_1 Y A B VDD VSS
.ends

* Black-box entry subcircuit for sg13g2_and2_1 abstract view
.subckt sg13g2_and2_1 A B X VDD VSS
.ends

* Black-box entry subcircuit for sg13g2_o21ai_1 abstract view
.subckt sg13g2_o21ai_1 B1 VDD Y VSS A1 A2
.ends

* Black-box entry subcircuit for sg13g2_a21oi_1 abstract view
.subckt sg13g2_a21oi_1 VSS VDD A1 A2 Y B1
.ends

* Black-box entry subcircuit for sg13g2_nand2b_1 abstract view
.subckt sg13g2_nand2b_1 Y B A_N VDD VSS
.ends

* Black-box entry subcircuit for sg13g2_nor2_1 abstract view
.subckt sg13g2_nor2_1 A B Y VDD VSS
.ends

* Black-box entry subcircuit for sg13g2_tielo abstract view
.subckt sg13g2_tielo VDD VSS L_LO
.ends

* Black-box entry subcircuit for sg13g2_a221oi_1 abstract view
.subckt sg13g2_a221oi_1 VDD VSS B2 C1 B1 A1 Y A2
.ends

* Black-box entry subcircuit for sg13g2_or2_1 abstract view
.subckt sg13g2_or2_1 VSS VDD X B A
.ends

* Black-box entry subcircuit for sg13g2_a21oi_2 abstract view
.subckt sg13g2_a21oi_2 VSS VDD B1 Y A2 A1
.ends

.subckt heichips25_example_small VGND VPWR clk ena rst_n ui_in[0] ui_in[1] ui_in[2]
+ ui_in[3] ui_in[4] ui_in[5] ui_in[6] ui_in[7] uio_in[0] uio_in[1] uio_in[2] uio_in[3]
+ uio_in[4] uio_in[5] uio_in[6] uio_in[7] uio_oe[0] uio_oe[1] uio_oe[2] uio_oe[3]
+ uio_oe[4] uio_oe[5] uio_oe[6] uio_oe[7] uio_out[0] uio_out[1] uio_out[2] uio_out[3]
+ uio_out[4] uio_out[5] uio_out[6] uio_out[7] uo_out[0] uo_out[1] uo_out[2] uo_out[3]
+ uo_out[4] uo_out[5] uo_out[6] uo_out[7]
XFILLER_27_406 VPWR VGND sg13g2_decap_8
XFILLER_39_266 VPWR VGND sg13g2_decap_8
XFILLER_35_450 VPWR VGND sg13g2_decap_8
XFILLER_23_634 VPWR VGND sg13g2_decap_8
XFILLER_22_144 VPWR VGND sg13g2_decap_8
XFILLER_7_7 VPWR VGND sg13g2_decap_8
XFILLER_19_907 VPWR VGND sg13g2_decap_8
XFILLER_18_417 VPWR VGND sg13g2_decap_8
XFILLER_45_214 VPWR VGND sg13g2_decap_8
XFILLER_14_634 VPWR VGND sg13g2_decap_8
XFILLER_26_494 VPWR VGND sg13g2_decap_8
XFILLER_13_144 VPWR VGND sg13g2_decap_8
XFILLER_41_464 VPWR VGND sg13g2_decap_8
XFILLER_9_137 VPWR VGND sg13g2_decap_8
XFILLER_10_851 VPWR VGND sg13g2_decap_8
XFILLER_6_844 VPWR VGND sg13g2_decap_8
XFILLER_5_354 VPWR VGND sg13g2_decap_8
XFILLER_1_560 VPWR VGND sg13g2_decap_8
XFILLER_3_67 VPWR VGND sg13g2_decap_8
XFILLER_49_553 VPWR VGND sg13g2_decap_8
XFILLER_36_214 VPWR VGND sg13g2_decap_8
XFILLER_17_483 VPWR VGND sg13g2_decap_8
XFILLER_45_781 VPWR VGND sg13g2_decap_8
XFILLER_32_431 VPWR VGND sg13g2_decap_8
XFILLER_44_291 VPWR VGND sg13g2_decap_8
XFILLER_20_648 VPWR VGND sg13g2_decap_8
XFILLER_27_203 VPWR VGND sg13g2_decap_8
XFILLER_28_748 VPWR VGND sg13g2_decap_8
XFILLER_43_718 VPWR VGND sg13g2_decap_8
XFILLER_36_781 VPWR VGND sg13g2_decap_8
XFILLER_23_431 VPWR VGND sg13g2_decap_8
XFILLER_42_239 VPWR VGND sg13g2_decap_8
XFILLER_11_648 VPWR VGND sg13g2_decap_8
XFILLER_10_158 VPWR VGND sg13g2_decap_8
XFILLER_12_32 VPWR VGND sg13g2_decap_8
XFILLER_5_4 VPWR VGND sg13g2_decap_8
XFILLER_3_858 VPWR VGND sg13g2_decap_8
XFILLER_2_368 VPWR VGND sg13g2_decap_8
XFILLER_19_704 VPWR VGND sg13g2_decap_8
XFILLER_18_214 VPWR VGND sg13g2_decap_8
XFILLER_46_567 VPWR VGND sg13g2_decap_8
XFILLER_37_84 VPWR VGND sg13g2_decap_8
XFILLER_15_921 VPWR VGND sg13g2_decap_4
XFILLER_27_770 VPWR VGND sg13g2_decap_8
XFILLER_14_431 VPWR VGND sg13g2_decap_8
XFILLER_26_291 VPWR VGND sg13g2_decap_8
XFILLER_41_261 VPWR VGND sg13g2_decap_8
XFILLER_6_641 VPWR VGND sg13g2_decap_8
XFILLER_5_151 VPWR VGND sg13g2_decap_8
XFILLER_38_4 VPWR VGND sg13g2_decap_8
XFILLER_49_350 VPWR VGND sg13g2_decap_8
XFILLER_37_567 VPWR VGND sg13g2_decap_8
XFILLER_18_781 VPWR VGND sg13g2_decap_8
XFILLER_17_280 VPWR VGND sg13g2_decap_8
XFILLER_33_751 VPWR VGND sg13g2_decap_8
XFILLER_20_445 VPWR VGND sg13g2_decap_8
XFILLER_28_545 VPWR VGND sg13g2_decap_8
XFILLER_16_718 VPWR VGND sg13g2_decap_8
XFILLER_43_515 VPWR VGND sg13g2_decap_8
XFILLER_15_228 VPWR VGND sg13g2_decap_8
XFILLER_24_740 VPWR VGND sg13g2_decap_8
XFILLER_11_445 VPWR VGND sg13g2_decap_8
XFILLER_23_53 VPWR VGND sg13g2_decap_8
XFILLER_7_427 VPWR VGND sg13g2_decap_8
XFILLER_3_655 VPWR VGND sg13g2_decap_8
XFILLER_2_165 VPWR VGND sg13g2_decap_8
XFILLER_19_501 VPWR VGND sg13g2_decap_8
XFILLER_47_854 VPWR VGND sg13g2_decap_8
XFILLER_0_35 VPWR VGND sg13g2_decap_8
XFILLER_46_364 VPWR VGND sg13g2_decap_8
XFILLER_19_578 VPWR VGND sg13g2_decap_8
XFILLER_34_559 VPWR VGND sg13g2_decap_8
XFILLER_9_11 VPWR VGND sg13g2_decap_8
XFILLER_15_795 VPWR VGND sg13g2_decap_8
XFILLER_9_88 VPWR VGND sg13g2_decap_8
XFILLER_30_765 VPWR VGND sg13g2_decap_8
XFILLER_38_810 VPWR VGND sg13g2_decap_8
X_49_ _17_ _13_ _15_ VPWR VGND sg13g2_nand2_1
XFILLER_37_364 VPWR VGND sg13g2_decap_8
XFILLER_38_887 VPWR VGND sg13g2_decap_8
XFILLER_25_559 VPWR VGND sg13g2_decap_8
XFILLER_21_732 VPWR VGND sg13g2_decap_8
XFILLER_40_529 VPWR VGND sg13g2_decap_8
XFILLER_20_242 VPWR VGND sg13g2_decap_8
XFILLER_0_658 VPWR VGND sg13g2_decap_8
XFILLER_29_810 VPWR VGND sg13g2_decap_8
XFILLER_18_53 VPWR VGND sg13g2_decap_8
XFILLER_28_342 VPWR VGND sg13g2_decap_8
XFILLER_16_515 VPWR VGND sg13g2_decap_8
XFILLER_29_887 VPWR VGND sg13g2_decap_8
XFILLER_44_802 VPWR VGND sg13g2_decap_8
XFILLER_43_312 VPWR VGND sg13g2_decap_8
XFILLER_31_507 VPWR VGND sg13g2_decap_8
XFILLER_44_879 VPWR VGND sg13g2_decap_8
XFILLER_34_63 VPWR VGND sg13g2_decap_8
XFILLER_43_389 VPWR VGND sg13g2_decap_8
XFILLER_12_732 VPWR VGND sg13g2_decap_8
XFILLER_11_242 VPWR VGND sg13g2_decap_8
XFILLER_8_725 VPWR VGND sg13g2_decap_8
XFILLER_7_224 VPWR VGND sg13g2_decap_8
XFILLER_3_452 VPWR VGND sg13g2_decap_8
XFILLER_38_117 VPWR VGND sg13g2_decap_8
XFILLER_47_651 VPWR VGND sg13g2_decap_8
XFILLER_19_375 VPWR VGND sg13g2_decap_8
XFILLER_46_161 VPWR VGND sg13g2_decap_8
XFILLER_35_835 VPWR VGND sg13g2_decap_8
XFILLER_34_356 VPWR VGND sg13g2_decap_8
XFILLER_22_529 VPWR VGND sg13g2_decap_8
XFILLER_15_592 VPWR VGND sg13g2_decap_8
XFILLER_30_562 VPWR VGND sg13g2_decap_8
XFILLER_7_791 VPWR VGND sg13g2_decap_8
XFILLER_26_802 VPWR VGND sg13g2_decap_8
XFILLER_44_109 VPWR VGND sg13g2_decap_8
XFILLER_37_161 VPWR VGND sg13g2_decap_8
XFILLER_38_684 VPWR VGND sg13g2_decap_8
XFILLER_25_356 VPWR VGND sg13g2_decap_8
XFILLER_26_879 VPWR VGND sg13g2_decap_8
XFILLER_13_529 VPWR VGND sg13g2_decap_8
XFILLER_40_326 VPWR VGND sg13g2_decap_8
XFILLER_41_849 VPWR VGND sg13g2_decap_8
XFILLER_5_739 VPWR VGND sg13g2_decap_8
XFILLER_4_249 VPWR VGND sg13g2_decap_8
XFILLER_20_32 VPWR VGND sg13g2_decap_8
XFILLER_0_455 VPWR VGND sg13g2_decap_8
XFILLER_48_448 VPWR VGND sg13g2_decap_8
XFILLER_29_74 VPWR VGND sg13g2_decap_8
XFILLER_16_312 VPWR VGND sg13g2_decap_8
XFILLER_29_684 VPWR VGND sg13g2_decap_8
XFILLER_17_868 VPWR VGND sg13g2_decap_8
XFILLER_32_816 VPWR VGND sg13g2_decap_8
XFILLER_44_676 VPWR VGND sg13g2_decap_8
XFILLER_16_389 VPWR VGND sg13g2_decap_8
XFILLER_31_304 VPWR VGND sg13g2_decap_8
XFILLER_43_186 VPWR VGND sg13g2_decap_8
XFILLER_45_95 VPWR VGND sg13g2_decap_8
XFILLER_8_522 VPWR VGND sg13g2_decap_8
XFILLER_40_893 VPWR VGND sg13g2_decap_8
XFILLER_8_599 VPWR VGND sg13g2_decap_8
XFILLER_6_67 VPWR VGND sg13g2_decap_8
XFILLER_20_4 VPWR VGND sg13g2_decap_8
XFILLER_39_448 VPWR VGND sg13g2_decap_8
XFILLER_26_109 VPWR VGND sg13g2_decap_8
XFILLER_19_172 VPWR VGND sg13g2_decap_8
XFILLER_35_632 VPWR VGND sg13g2_decap_8
XFILLER_23_816 VPWR VGND sg13g2_decap_8
XFILLER_34_153 VPWR VGND sg13g2_decap_8
XFILLER_22_326 VPWR VGND sg13g2_decap_8
XFILLER_31_871 VPWR VGND sg13g2_decap_8
XFILLER_38_481 VPWR VGND sg13g2_decap_8
XFILLER_14_816 VPWR VGND sg13g2_decap_8
XFILLER_15_32 VPWR VGND sg13g2_decap_8
XFILLER_25_153 VPWR VGND sg13g2_decap_8
XFILLER_26_676 VPWR VGND sg13g2_decap_8
XFILLER_13_326 VPWR VGND sg13g2_decap_8
XFILLER_40_123 VPWR VGND sg13g2_decap_8
XFILLER_41_646 VPWR VGND sg13g2_decap_8
XFILLER_9_319 VPWR VGND sg13g2_decap_8
XFILLER_22_893 VPWR VGND sg13g2_decap_8
XFILLER_5_536 VPWR VGND sg13g2_decap_8
Xoutput20 net20 uo_out[3] VPWR VGND sg13g2_buf_1
XFILLER_1_742 VPWR VGND sg13g2_decap_8
XFILLER_0_252 VPWR VGND sg13g2_decap_8
XFILLER_49_735 VPWR VGND sg13g2_decap_8
XFILLER_48_245 VPWR VGND sg13g2_decap_8
XFILLER_29_481 VPWR VGND sg13g2_decap_8
XFILLER_17_665 VPWR VGND sg13g2_decap_8
XFILLER_32_613 VPWR VGND sg13g2_decap_8
XFILLER_44_473 VPWR VGND sg13g2_decap_8
XFILLER_16_186 VPWR VGND sg13g2_decap_8
XFILLER_13_893 VPWR VGND sg13g2_decap_8
XFILLER_31_178 VPWR VGND sg13g2_decap_8
XFILLER_40_690 VPWR VGND sg13g2_decap_8
XFILLER_9_886 VPWR VGND sg13g2_decap_8
XFILLER_8_396 VPWR VGND sg13g2_decap_8
XFILLER_39_245 VPWR VGND sg13g2_decap_8
XFILLER_23_613 VPWR VGND sg13g2_decap_8
XFILLER_22_123 VPWR VGND sg13g2_decap_8
XFILLER_46_749 VPWR VGND sg13g2_decap_8
XFILLER_14_613 VPWR VGND sg13g2_decap_8
XFILLER_26_75 VPWR VGND sg13g2_decap_4
XFILLER_26_473 VPWR VGND sg13g2_decap_8
XFILLER_42_911 VPWR VGND sg13g2_decap_8
XFILLER_13_123 VPWR VGND sg13g2_decap_8
XFILLER_9_116 VPWR VGND sg13g2_decap_8
XFILLER_41_443 VPWR VGND sg13g2_decap_8
XFILLER_10_830 VPWR VGND sg13g2_decap_8
XFILLER_22_690 VPWR VGND sg13g2_decap_8
XFILLER_42_85 VPWR VGND sg13g2_decap_8
XFILLER_6_823 VPWR VGND sg13g2_decap_8
XFILLER_5_333 VPWR VGND sg13g2_decap_8
XFILLER_3_46 VPWR VGND sg13g2_decap_8
XFILLER_49_532 VPWR VGND sg13g2_decap_8
XFILLER_37_749 VPWR VGND sg13g2_decap_8
XFILLER_17_462 VPWR VGND sg13g2_decap_8
XFILLER_45_760 VPWR VGND sg13g2_decap_8
XFILLER_32_410 VPWR VGND sg13g2_decap_8
XFILLER_44_270 VPWR VGND sg13g2_decap_8
XFILLER_20_627 VPWR VGND sg13g2_decap_8
XFILLER_32_487 VPWR VGND sg13g2_decap_8
XFILLER_13_690 VPWR VGND sg13g2_decap_8
XFILLER_9_683 VPWR VGND sg13g2_decap_8
XFILLER_8_193 VPWR VGND sg13g2_decap_8
XFILLER_28_727 VPWR VGND sg13g2_decap_8
XFILLER_27_259 VPWR VGND sg13g2_decap_8
XFILLER_24_922 VPWR VGND sg13g2_fill_2
XFILLER_36_760 VPWR VGND sg13g2_decap_8
XFILLER_42_218 VPWR VGND sg13g2_decap_8
XFILLER_23_410 VPWR VGND sg13g2_decap_8
XFILLER_11_627 VPWR VGND sg13g2_decap_8
XFILLER_23_487 VPWR VGND sg13g2_decap_8
XFILLER_10_137 VPWR VGND sg13g2_decap_8
XFILLER_7_609 VPWR VGND sg13g2_decap_8
XFILLER_12_11 VPWR VGND sg13g2_decap_8
XFILLER_12_88 VPWR VGND sg13g2_decap_8
XFILLER_3_837 VPWR VGND sg13g2_decap_8
XFILLER_2_347 VPWR VGND sg13g2_decap_8
XFILLER_46_546 VPWR VGND sg13g2_decap_8
XFILLER_37_63 VPWR VGND sg13g2_decap_8
XFILLER_15_900 VPWR VGND sg13g2_decap_8
XFILLER_14_410 VPWR VGND sg13g2_decap_8
XFILLER_26_270 VPWR VGND sg13g2_decap_8
XFILLER_41_240 VPWR VGND sg13g2_decap_8
XFILLER_14_487 VPWR VGND sg13g2_decap_8
XFILLER_42_785 VPWR VGND sg13g2_decap_8
XFILLER_6_620 VPWR VGND sg13g2_decap_8
XFILLER_5_130 VPWR VGND sg13g2_decap_8
XFILLER_6_697 VPWR VGND sg13g2_decap_8
X_65_ net9 net1 net17 VPWR VGND sg13g2_xor2_1
XFILLER_37_546 VPWR VGND sg13g2_decap_8
XFILLER_18_760 VPWR VGND sg13g2_decap_8
XFILLER_24_229 VPWR VGND sg13g2_decap_8
XFILLER_33_730 VPWR VGND sg13g2_decap_8
XFILLER_21_914 VPWR VGND sg13g2_decap_8
XFILLER_20_424 VPWR VGND sg13g2_decap_8
XFILLER_32_284 VPWR VGND sg13g2_decap_8
XFILLER_9_480 VPWR VGND sg13g2_decap_8
XFILLER_28_524 VPWR VGND sg13g2_decap_8
XFILLER_15_207 VPWR VGND sg13g2_decap_8
XFILLER_12_914 VPWR VGND sg13g2_decap_8
XFILLER_11_424 VPWR VGND sg13g2_decap_8
XFILLER_24_796 VPWR VGND sg13g2_decap_8
XFILLER_8_907 VPWR VGND sg13g2_decap_8
XFILLER_7_406 VPWR VGND sg13g2_decap_8
XFILLER_23_32 VPWR VGND sg13g2_decap_8
XFILLER_23_284 VPWR VGND sg13g2_decap_8
XFILLER_3_634 VPWR VGND sg13g2_decap_8
XFILLER_2_144 VPWR VGND sg13g2_decap_8
XFILLER_47_833 VPWR VGND sg13g2_decap_8
XFILLER_48_84 VPWR VGND sg13g2_decap_8
XFILLER_46_343 VPWR VGND sg13g2_decap_8
XFILLER_0_14 VPWR VGND sg13g2_decap_8
XFILLER_19_557 VPWR VGND sg13g2_decap_8
XFILLER_34_538 VPWR VGND sg13g2_decap_8
XFILLER_15_774 VPWR VGND sg13g2_decap_8
XFILLER_42_582 VPWR VGND sg13g2_decap_8
XFILLER_9_67 VPWR VGND sg13g2_decap_8
XFILLER_14_284 VPWR VGND sg13g2_decap_8
XFILLER_30_744 VPWR VGND sg13g2_decap_8
XFILLER_6_494 VPWR VGND sg13g2_decap_8
XFILLER_38_866 VPWR VGND sg13g2_decap_8
X_48_ VPWR _16_ _15_ VGND sg13g2_inv_1
XFILLER_37_343 VPWR VGND sg13g2_decap_8
XFILLER_25_538 VPWR VGND sg13g2_decap_8
XFILLER_40_508 VPWR VGND sg13g2_decap_8
XFILLER_21_711 VPWR VGND sg13g2_decap_8
XFILLER_20_221 VPWR VGND sg13g2_decap_8
XFILLER_21_788 VPWR VGND sg13g2_decap_8
XFILLER_20_298 VPWR VGND sg13g2_decap_8
XFILLER_0_637 VPWR VGND sg13g2_decap_8
XFILLER_18_32 VPWR VGND sg13g2_decap_8
XFILLER_28_321 VPWR VGND sg13g2_decap_8
XFILLER_29_866 VPWR VGND sg13g2_decap_8
XFILLER_28_398 VPWR VGND sg13g2_decap_8
XFILLER_44_858 VPWR VGND sg13g2_decap_8
XFILLER_43_368 VPWR VGND sg13g2_decap_8
XFILLER_12_711 VPWR VGND sg13g2_decap_8
XFILLER_11_221 VPWR VGND sg13g2_decap_8
XFILLER_8_704 VPWR VGND sg13g2_decap_8
XFILLER_24_593 VPWR VGND sg13g2_decap_8
XFILLER_7_203 VPWR VGND sg13g2_decap_8
XFILLER_12_788 VPWR VGND sg13g2_decap_8
XFILLER_11_298 VPWR VGND sg13g2_decap_8
XFILLER_4_921 VPWR VGND sg13g2_decap_4
XFILLER_3_431 VPWR VGND sg13g2_decap_8
XFILLER_47_630 VPWR VGND sg13g2_decap_8
XFILLER_46_140 VPWR VGND sg13g2_decap_8
XFILLER_19_354 VPWR VGND sg13g2_decap_8
XFILLER_35_814 VPWR VGND sg13g2_decap_8
XFILLER_22_508 VPWR VGND sg13g2_decap_8
XFILLER_34_335 VPWR VGND sg13g2_decap_8
XFILLER_15_571 VPWR VGND sg13g2_decap_8
XFILLER_30_541 VPWR VGND sg13g2_decap_8
XFILLER_7_770 VPWR VGND sg13g2_decap_8
XFILLER_6_291 VPWR VGND sg13g2_decap_8
XFILLER_29_118 VPWR VGND sg13g2_fill_1
XFILLER_37_140 VPWR VGND sg13g2_decap_8
XFILLER_38_663 VPWR VGND sg13g2_decap_8
XFILLER_25_335 VPWR VGND sg13g2_decap_8
XFILLER_26_858 VPWR VGND sg13g2_decap_8
XFILLER_13_508 VPWR VGND sg13g2_decap_8
XFILLER_40_305 VPWR VGND sg13g2_decap_8
XFILLER_41_828 VPWR VGND sg13g2_decap_8
XFILLER_21_585 VPWR VGND sg13g2_decap_8
XFILLER_5_718 VPWR VGND sg13g2_decap_8
XFILLER_4_228 VPWR VGND sg13g2_decap_8
XFILLER_20_11 VPWR VGND sg13g2_decap_8
XFILLER_1_924 VPWR VGND sg13g2_fill_1
XFILLER_20_88 VPWR VGND sg13g2_decap_8
XFILLER_49_917 VPWR VGND sg13g2_decap_8
XFILLER_0_434 VPWR VGND sg13g2_decap_8
XFILLER_48_427 VPWR VGND sg13g2_decap_8
XFILLER_29_53 VPWR VGND sg13g2_decap_8
XFILLER_29_663 VPWR VGND sg13g2_decap_8
XFILLER_17_847 VPWR VGND sg13g2_decap_8
XFILLER_28_195 VPWR VGND sg13g2_decap_8
XFILLER_44_655 VPWR VGND sg13g2_decap_8
XFILLER_45_74 VPWR VGND sg13g2_decap_8
XFILLER_16_368 VPWR VGND sg13g2_decap_8
XFILLER_43_165 VPWR VGND sg13g2_decap_8
XFILLER_24_390 VPWR VGND sg13g2_decap_8
XFILLER_8_501 VPWR VGND sg13g2_decap_8
XFILLER_40_872 VPWR VGND sg13g2_decap_8
XFILLER_12_585 VPWR VGND sg13g2_decap_8
XFILLER_8_578 VPWR VGND sg13g2_decap_8
XFILLER_6_46 VPWR VGND sg13g2_decap_8
XFILLER_4_795 VPWR VGND sg13g2_decap_8
XFILLER_13_4 VPWR VGND sg13g2_decap_8
XFILLER_39_427 VPWR VGND sg13g2_decap_8
XFILLER_19_151 VPWR VGND sg13g2_decap_8
XFILLER_35_611 VPWR VGND sg13g2_decap_8
XFILLER_34_132 VPWR VGND sg13g2_decap_8
XFILLER_22_305 VPWR VGND sg13g2_decap_8
XFILLER_35_688 VPWR VGND sg13g2_decap_8
XFILLER_31_850 VPWR VGND sg13g2_decap_8
XFILLER_38_460 VPWR VGND sg13g2_decap_8
XFILLER_25_132 VPWR VGND sg13g2_decap_8
XFILLER_26_655 VPWR VGND sg13g2_decap_8
XFILLER_13_305 VPWR VGND sg13g2_decap_8
XFILLER_15_11 VPWR VGND sg13g2_decap_8
XFILLER_41_625 VPWR VGND sg13g2_decap_8
XFILLER_40_102 VPWR VGND sg13g2_decap_8
XFILLER_15_88 VPWR VGND sg13g2_decap_8
XFILLER_22_872 VPWR VGND sg13g2_decap_8
XFILLER_21_382 VPWR VGND sg13g2_decap_8
XFILLER_40_179 VPWR VGND sg13g2_decap_8
XFILLER_31_32 VPWR VGND sg13g2_decap_4
XFILLER_5_515 VPWR VGND sg13g2_decap_8
Xoutput21 net21 uo_out[4] VPWR VGND sg13g2_buf_1
XFILLER_1_721 VPWR VGND sg13g2_decap_8
XFILLER_49_714 VPWR VGND sg13g2_decap_8
XFILLER_0_231 VPWR VGND sg13g2_decap_8
XFILLER_48_224 VPWR VGND sg13g2_decap_8
XFILLER_1_798 VPWR VGND sg13g2_decap_8
XFILLER_29_460 VPWR VGND sg13g2_decap_8
XFILLER_17_644 VPWR VGND sg13g2_decap_8
XFILLER_16_165 VPWR VGND sg13g2_decap_8
XFILLER_44_452 VPWR VGND sg13g2_decap_8
XFILLER_13_872 VPWR VGND sg13g2_decap_8
XFILLER_20_809 VPWR VGND sg13g2_decap_8
XFILLER_31_157 VPWR VGND sg13g2_decap_8
XFILLER_32_669 VPWR VGND sg13g2_decap_8
XFILLER_12_382 VPWR VGND sg13g2_decap_8
XFILLER_9_865 VPWR VGND sg13g2_decap_8
XFILLER_8_375 VPWR VGND sg13g2_decap_8
XFILLER_4_592 VPWR VGND sg13g2_decap_8
XFILLER_39_224 VPWR VGND sg13g2_decap_8
XFILLER_28_909 VPWR VGND sg13g2_decap_8
XFILLER_48_791 VPWR VGND sg13g2_decap_8
XFILLER_22_102 VPWR VGND sg13g2_decap_8
XFILLER_35_485 VPWR VGND sg13g2_decap_8
XFILLER_11_809 VPWR VGND sg13g2_decap_8
XFILLER_23_669 VPWR VGND sg13g2_decap_8
XFILLER_10_319 VPWR VGND sg13g2_decap_8
XFILLER_22_179 VPWR VGND sg13g2_decap_8
XFILLER_2_529 VPWR VGND sg13g2_decap_8
XFILLER_46_728 VPWR VGND sg13g2_decap_8
XFILLER_39_791 VPWR VGND sg13g2_decap_8
XFILLER_45_249 VPWR VGND sg13g2_decap_8
XFILLER_26_54 VPWR VGND sg13g2_decap_8
XFILLER_26_452 VPWR VGND sg13g2_decap_8
XFILLER_13_102 VPWR VGND sg13g2_decap_8
XFILLER_41_422 VPWR VGND sg13g2_decap_8
XFILLER_14_669 VPWR VGND sg13g2_decap_8
XFILLER_13_179 VPWR VGND sg13g2_decap_8
XFILLER_41_499 VPWR VGND sg13g2_decap_8
XFILLER_6_802 VPWR VGND sg13g2_decap_8
XFILLER_42_64 VPWR VGND sg13g2_decap_8
XFILLER_10_886 VPWR VGND sg13g2_decap_8
XFILLER_5_312 VPWR VGND sg13g2_decap_8
XFILLER_6_879 VPWR VGND sg13g2_decap_8
XFILLER_5_389 VPWR VGND sg13g2_decap_8
XFILLER_3_25 VPWR VGND sg13g2_decap_8
XFILLER_49_511 VPWR VGND sg13g2_decap_8
XFILLER_1_595 VPWR VGND sg13g2_decap_8
XFILLER_49_588 VPWR VGND sg13g2_decap_8
XFILLER_37_728 VPWR VGND sg13g2_decap_8
XFILLER_36_249 VPWR VGND sg13g2_decap_8
XFILLER_17_441 VPWR VGND sg13g2_decap_8
XFILLER_33_912 VPWR VGND sg13g2_decap_8
XFILLER_33_923 VPWR VGND sg13g2_fill_2
XFILLER_20_606 VPWR VGND sg13g2_decap_8
XFILLER_32_466 VPWR VGND sg13g2_decap_8
XFILLER_9_662 VPWR VGND sg13g2_decap_8
XFILLER_8_172 VPWR VGND sg13g2_decap_8
XFILLER_28_706 VPWR VGND sg13g2_decap_8
XFILLER_27_238 VPWR VGND sg13g2_decap_8
XFILLER_24_901 VPWR VGND sg13g2_decap_8
XFILLER_35_282 VPWR VGND sg13g2_decap_8
XFILLER_11_606 VPWR VGND sg13g2_decap_8
XFILLER_23_466 VPWR VGND sg13g2_decap_8
XFILLER_10_116 VPWR VGND sg13g2_decap_8
XFILLER_6_109 VPWR VGND sg13g2_decap_8
XFILLER_12_67 VPWR VGND sg13g2_decap_8
XFILLER_3_816 VPWR VGND sg13g2_decap_8
XFILLER_2_326 VPWR VGND sg13g2_decap_8
XFILLER_46_525 VPWR VGND sg13g2_decap_8
XFILLER_19_739 VPWR VGND sg13g2_decap_8
XFILLER_37_42 VPWR VGND sg13g2_decap_8
XFILLER_18_249 VPWR VGND sg13g2_decap_8
XFILLER_33_219 VPWR VGND sg13g2_decap_8
XFILLER_42_764 VPWR VGND sg13g2_decap_8
XFILLER_14_466 VPWR VGND sg13g2_decap_8
XFILLER_41_296 VPWR VGND sg13g2_decap_8
XFILLER_10_683 VPWR VGND sg13g2_decap_8
XFILLER_6_676 VPWR VGND sg13g2_decap_8
XFILLER_5_186 VPWR VGND sg13g2_decap_8
XFILLER_2_893 VPWR VGND sg13g2_decap_8
XFILLER_1_392 VPWR VGND sg13g2_decap_8
XFILLER_37_525 VPWR VGND sg13g2_decap_8
X_64_ net24 _27_ _28_ VPWR VGND sg13g2_xnor2_1
XFILLER_49_385 VPWR VGND sg13g2_decap_8
XFILLER_24_208 VPWR VGND sg13g2_decap_8
XFILLER_20_403 VPWR VGND sg13g2_decap_8
XFILLER_32_263 VPWR VGND sg13g2_decap_8
XFILLER_33_786 VPWR VGND sg13g2_decap_8
XFILLER_0_819 VPWR VGND sg13g2_decap_8
XFILLER_28_503 VPWR VGND sg13g2_decap_8
XFILLER_11_403 VPWR VGND sg13g2_decap_8
XFILLER_23_11 VPWR VGND sg13g2_decap_8
XFILLER_23_263 VPWR VGND sg13g2_decap_8
XFILLER_24_775 VPWR VGND sg13g2_decap_8
XFILLER_23_88 VPWR VGND sg13g2_decap_8
XFILLER_3_613 VPWR VGND sg13g2_decap_8
XFILLER_2_123 VPWR VGND sg13g2_decap_8
XFILLER_47_812 VPWR VGND sg13g2_decap_8
XFILLER_48_63 VPWR VGND sg13g2_decap_8
XFILLER_46_322 VPWR VGND sg13g2_decap_8
XFILLER_19_536 VPWR VGND sg13g2_decap_8
XFILLER_47_889 VPWR VGND sg13g2_decap_8
XFILLER_34_517 VPWR VGND sg13g2_decap_8
XFILLER_46_399 VPWR VGND sg13g2_decap_8
XFILLER_15_753 VPWR VGND sg13g2_decap_8
XFILLER_14_263 VPWR VGND sg13g2_decap_8
XFILLER_30_723 VPWR VGND sg13g2_decap_8
XFILLER_42_561 VPWR VGND sg13g2_decap_8
XFILLER_9_46 VPWR VGND sg13g2_decap_8
XFILLER_10_480 VPWR VGND sg13g2_decap_8
XFILLER_6_473 VPWR VGND sg13g2_decap_8
XFILLER_43_4 VPWR VGND sg13g2_decap_8
XFILLER_2_690 VPWR VGND sg13g2_decap_8
XFILLER_49_182 VPWR VGND sg13g2_decap_8
XFILLER_37_322 VPWR VGND sg13g2_decap_8
XFILLER_38_845 VPWR VGND sg13g2_decap_8
X_47_ net13 net5 _15_ VPWR VGND sg13g2_xor2_1
XFILLER_25_517 VPWR VGND sg13g2_decap_8
XFILLER_37_399 VPWR VGND sg13g2_decap_8
XFILLER_20_200 VPWR VGND sg13g2_decap_8
XFILLER_33_583 VPWR VGND sg13g2_decap_8
XFILLER_21_767 VPWR VGND sg13g2_decap_8
XFILLER_20_277 VPWR VGND sg13g2_decap_8
XFILLER_0_616 VPWR VGND sg13g2_decap_8
XFILLER_48_609 VPWR VGND sg13g2_decap_8
XFILLER_47_119 VPWR VGND sg13g2_decap_8
XFILLER_18_11 VPWR VGND sg13g2_decap_8
XFILLER_28_300 VPWR VGND sg13g2_decap_8
XFILLER_29_845 VPWR VGND sg13g2_decap_8
XFILLER_18_88 VPWR VGND sg13g2_decap_8
XFILLER_28_377 VPWR VGND sg13g2_decap_8
XFILLER_44_837 VPWR VGND sg13g2_decap_8
XFILLER_43_347 VPWR VGND sg13g2_decap_8
XFILLER_24_572 VPWR VGND sg13g2_decap_8
XFILLER_11_200 VPWR VGND sg13g2_decap_8
XFILLER_34_98 VPWR VGND sg13g2_decap_8
XFILLER_12_767 VPWR VGND sg13g2_decap_8
XFILLER_11_277 VPWR VGND sg13g2_decap_8
XFILLER_7_259 VPWR VGND sg13g2_decap_8
XFILLER_4_900 VPWR VGND sg13g2_decap_8
XFILLER_3_410 VPWR VGND sg13g2_decap_8
XFILLER_3_487 VPWR VGND sg13g2_decap_8
XFILLER_1_0 VPWR VGND sg13g2_decap_8
XFILLER_39_609 VPWR VGND sg13g2_decap_8
XFILLER_19_333 VPWR VGND sg13g2_decap_8
XFILLER_47_686 VPWR VGND sg13g2_decap_8
XFILLER_34_314 VPWR VGND sg13g2_decap_8
XFILLER_46_196 VPWR VGND sg13g2_decap_8
XFILLER_15_550 VPWR VGND sg13g2_decap_8
XFILLER_30_520 VPWR VGND sg13g2_decap_8
XFILLER_30_597 VPWR VGND sg13g2_decap_8
XFILLER_6_270 VPWR VGND sg13g2_decap_8
XFILLER_38_642 VPWR VGND sg13g2_decap_8
XFILLER_1_91 VPWR VGND sg13g2_decap_8
XFILLER_25_314 VPWR VGND sg13g2_decap_8
XFILLER_26_837 VPWR VGND sg13g2_decap_8
XFILLER_37_196 VPWR VGND sg13g2_decap_8
XFILLER_41_807 VPWR VGND sg13g2_decap_8
XFILLER_34_881 VPWR VGND sg13g2_decap_8
XFILLER_33_380 VPWR VGND sg13g2_decap_8
XFILLER_21_564 VPWR VGND sg13g2_decap_8
XFILLER_4_207 VPWR VGND sg13g2_decap_8
XFILLER_1_903 VPWR VGND sg13g2_decap_8
XFILLER_20_67 VPWR VGND sg13g2_decap_8
XFILLER_0_413 VPWR VGND sg13g2_decap_8
XFILLER_48_406 VPWR VGND sg13g2_decap_8
XFILLER_29_32 VPWR VGND sg13g2_decap_8
XFILLER_29_642 VPWR VGND sg13g2_decap_8
XFILLER_17_826 VPWR VGND sg13g2_decap_8
XFILLER_28_174 VPWR VGND sg13g2_decap_8
XFILLER_16_347 VPWR VGND sg13g2_decap_8
XFILLER_44_634 VPWR VGND sg13g2_decap_8
XFILLER_45_53 VPWR VGND sg13g2_decap_8
XFILLER_43_144 VPWR VGND sg13g2_decap_8
XFILLER_25_881 VPWR VGND sg13g2_decap_8
XFILLER_31_339 VPWR VGND sg13g2_decap_8
XFILLER_12_564 VPWR VGND sg13g2_decap_8
XFILLER_40_851 VPWR VGND sg13g2_decap_8
XFILLER_8_557 VPWR VGND sg13g2_decap_8
XFILLER_6_25 VPWR VGND sg13g2_decap_8
XFILLER_4_774 VPWR VGND sg13g2_decap_8
XFILLER_3_284 VPWR VGND sg13g2_decap_8
XFILLER_39_406 VPWR VGND sg13g2_decap_8
XFILLER_19_130 VPWR VGND sg13g2_decap_8
XFILLER_47_483 VPWR VGND sg13g2_decap_8
XFILLER_35_667 VPWR VGND sg13g2_decap_8
XFILLER_34_188 VPWR VGND sg13g2_decap_8
XFILLER_30_394 VPWR VGND sg13g2_decap_8
XFILLER_25_111 VPWR VGND sg13g2_decap_8
XFILLER_26_634 VPWR VGND sg13g2_decap_8
XFILLER_41_604 VPWR VGND sg13g2_decap_8
XFILLER_25_188 VPWR VGND sg13g2_decap_8
XFILLER_15_67 VPWR VGND sg13g2_decap_8
XFILLER_22_851 VPWR VGND sg13g2_decap_8
XFILLER_40_158 VPWR VGND sg13g2_decap_8
XFILLER_21_361 VPWR VGND sg13g2_decap_8
XFILLER_31_11 VPWR VGND sg13g2_decap_8
XFILLER_31_88 VPWR VGND sg13g2_decap_8
Xoutput22 net22 uo_out[5] VPWR VGND sg13g2_buf_1
XFILLER_1_700 VPWR VGND sg13g2_decap_8
XFILLER_0_210 VPWR VGND sg13g2_decap_8
XFILLER_1_777 VPWR VGND sg13g2_decap_8
XFILLER_48_203 VPWR VGND sg13g2_decap_8
XFILLER_0_287 VPWR VGND sg13g2_decap_8
XFILLER_45_921 VPWR VGND sg13g2_decap_4
XFILLER_17_623 VPWR VGND sg13g2_decap_8
XFILLER_44_431 VPWR VGND sg13g2_decap_8
XFILLER_16_144 VPWR VGND sg13g2_decap_8
XFILLER_32_648 VPWR VGND sg13g2_decap_8
XFILLER_13_851 VPWR VGND sg13g2_decap_8
XFILLER_31_136 VPWR VGND sg13g2_decap_8
XFILLER_9_844 VPWR VGND sg13g2_decap_8
XFILLER_12_361 VPWR VGND sg13g2_decap_8
XFILLER_8_354 VPWR VGND sg13g2_decap_8
XFILLER_4_571 VPWR VGND sg13g2_decap_8
XFILLER_39_203 VPWR VGND sg13g2_decap_8
XFILLER_48_770 VPWR VGND sg13g2_decap_8
XFILLER_36_921 VPWR VGND sg13g2_decap_4
XFILLER_47_280 VPWR VGND sg13g2_decap_8
XFILLER_35_464 VPWR VGND sg13g2_decap_8
XFILLER_23_648 VPWR VGND sg13g2_decap_8
XFILLER_22_158 VPWR VGND sg13g2_decap_8
XFILLER_30_191 VPWR VGND sg13g2_decap_8
XFILLER_2_508 VPWR VGND sg13g2_decap_8
XFILLER_46_707 VPWR VGND sg13g2_decap_8
XFILLER_27_910 VPWR VGND sg13g2_decap_8
XFILLER_39_770 VPWR VGND sg13g2_decap_8
XFILLER_26_11 VPWR VGND sg13g2_decap_8
XFILLER_26_431 VPWR VGND sg13g2_decap_8
XFILLER_45_228 VPWR VGND sg13g2_decap_8
XFILLER_14_648 VPWR VGND sg13g2_decap_8
XFILLER_26_88 VPWR VGND sg13g2_decap_8
XFILLER_41_401 VPWR VGND sg13g2_decap_8
XFILLER_13_158 VPWR VGND sg13g2_decap_8
XFILLER_41_478 VPWR VGND sg13g2_decap_8
XFILLER_42_32 VPWR VGND sg13g2_fill_2
XFILLER_42_43 VPWR VGND sg13g2_decap_8
XFILLER_10_865 VPWR VGND sg13g2_decap_8
XFILLER_6_858 VPWR VGND sg13g2_decap_8
XFILLER_5_368 VPWR VGND sg13g2_decap_8
XFILLER_1_574 VPWR VGND sg13g2_decap_8
XFILLER_49_567 VPWR VGND sg13g2_decap_8
XFILLER_37_707 VPWR VGND sg13g2_decap_8
XFILLER_18_921 VPWR VGND sg13g2_decap_4
XFILLER_17_420 VPWR VGND sg13g2_decap_8
XFILLER_36_228 VPWR VGND sg13g2_decap_8
XFILLER_17_497 VPWR VGND sg13g2_decap_8
XFILLER_45_795 VPWR VGND sg13g2_decap_8
XFILLER_32_445 VPWR VGND sg13g2_decap_8
XFILLER_9_641 VPWR VGND sg13g2_decap_8
XFILLER_8_151 VPWR VGND sg13g2_decap_8
XFILLER_27_217 VPWR VGND sg13g2_decap_8
XFILLER_24_924 VPWR VGND sg13g2_fill_1
XFILLER_35_261 VPWR VGND sg13g2_decap_8
XFILLER_36_795 VPWR VGND sg13g2_decap_8
XFILLER_23_445 VPWR VGND sg13g2_decap_8
XFILLER_12_46 VPWR VGND sg13g2_decap_8
XFILLER_2_305 VPWR VGND sg13g2_decap_8
XFILLER_46_504 VPWR VGND sg13g2_decap_8
XFILLER_19_718 VPWR VGND sg13g2_decap_8
XFILLER_37_21 VPWR VGND sg13g2_decap_8
XFILLER_18_228 VPWR VGND sg13g2_decap_8
XFILLER_37_98 VPWR VGND sg13g2_decap_8
XFILLER_27_784 VPWR VGND sg13g2_decap_8
XFILLER_14_445 VPWR VGND sg13g2_decap_8
XFILLER_30_905 VPWR VGND sg13g2_decap_8
XFILLER_42_743 VPWR VGND sg13g2_decap_8
XFILLER_41_275 VPWR VGND sg13g2_decap_8
XFILLER_10_662 VPWR VGND sg13g2_decap_8
XFILLER_6_655 VPWR VGND sg13g2_decap_8
XFILLER_5_165 VPWR VGND sg13g2_decap_8
XFILLER_2_872 VPWR VGND sg13g2_decap_8
XFILLER_1_371 VPWR VGND sg13g2_decap_8
XFILLER_49_364 VPWR VGND sg13g2_decap_8
XFILLER_37_504 VPWR VGND sg13g2_decap_8
X_63_ _28_ net8 net16 VPWR VGND sg13g2_xnor2_1
XFILLER_18_795 VPWR VGND sg13g2_decap_8
XFILLER_17_294 VPWR VGND sg13g2_decap_8
XFILLER_33_765 VPWR VGND sg13g2_decap_8
XFILLER_45_592 VPWR VGND sg13g2_decap_8
XFILLER_32_242 VPWR VGND sg13g2_decap_8
XFILLER_20_459 VPWR VGND sg13g2_decap_8
XFILLER_28_559 VPWR VGND sg13g2_decap_8
XFILLER_43_529 VPWR VGND sg13g2_decap_8
XFILLER_24_754 VPWR VGND sg13g2_decap_8
XFILLER_36_592 VPWR VGND sg13g2_decap_8
XFILLER_23_242 VPWR VGND sg13g2_decap_8
XFILLER_11_459 VPWR VGND sg13g2_decap_8
XFILLER_23_67 VPWR VGND sg13g2_decap_8
XFILLER_2_102 VPWR VGND sg13g2_decap_8
XFILLER_3_669 VPWR VGND sg13g2_decap_8
XFILLER_3_4 VPWR VGND sg13g2_decap_8
XFILLER_2_179 VPWR VGND sg13g2_decap_8
XFILLER_48_42 VPWR VGND sg13g2_decap_8
XFILLER_19_515 VPWR VGND sg13g2_decap_8
XFILLER_46_301 VPWR VGND sg13g2_decap_8
XFILLER_47_868 VPWR VGND sg13g2_decap_8
XFILLER_0_49 VPWR VGND sg13g2_decap_8
XFILLER_46_378 VPWR VGND sg13g2_decap_8
XFILLER_27_581 VPWR VGND sg13g2_decap_8
XFILLER_15_732 VPWR VGND sg13g2_decap_8
XFILLER_42_540 VPWR VGND sg13g2_decap_8
XFILLER_9_25 VPWR VGND sg13g2_decap_8
XFILLER_14_242 VPWR VGND sg13g2_decap_8
XFILLER_30_702 VPWR VGND sg13g2_decap_8
XFILLER_30_779 VPWR VGND sg13g2_decap_8
XFILLER_6_452 VPWR VGND sg13g2_decap_8
XFILLER_36_4 VPWR VGND sg13g2_decap_8
XFILLER_49_161 VPWR VGND sg13g2_decap_8
XFILLER_37_301 VPWR VGND sg13g2_decap_8
XFILLER_38_824 VPWR VGND sg13g2_decap_8
X_46_ _14_ net5 net13 VPWR VGND sg13g2_nand2_1
XFILLER_37_378 VPWR VGND sg13g2_decap_8
XFILLER_18_592 VPWR VGND sg13g2_decap_8
XFILLER_33_562 VPWR VGND sg13g2_decap_8
XFILLER_21_746 VPWR VGND sg13g2_decap_8
XFILLER_20_256 VPWR VGND sg13g2_decap_8
XFILLER_29_824 VPWR VGND sg13g2_decap_8
XFILLER_18_67 VPWR VGND sg13g2_decap_8
XFILLER_28_356 VPWR VGND sg13g2_decap_8
XFILLER_44_816 VPWR VGND sg13g2_decap_8
XFILLER_16_529 VPWR VGND sg13g2_decap_8
XFILLER_43_326 VPWR VGND sg13g2_decap_8
XFILLER_34_11 VPWR VGND sg13g2_decap_8
XFILLER_24_551 VPWR VGND sg13g2_decap_8
XFILLER_12_746 VPWR VGND sg13g2_decap_8
XFILLER_34_77 VPWR VGND sg13g2_decap_8
XFILLER_11_256 VPWR VGND sg13g2_decap_8
XFILLER_8_739 VPWR VGND sg13g2_decap_8
XFILLER_7_238 VPWR VGND sg13g2_decap_8
XFILLER_3_466 VPWR VGND sg13g2_decap_8
XFILLER_19_312 VPWR VGND sg13g2_decap_8
XFILLER_47_665 VPWR VGND sg13g2_decap_8
XFILLER_46_175 VPWR VGND sg13g2_decap_8
XFILLER_19_389 VPWR VGND sg13g2_decap_8
XFILLER_35_849 VPWR VGND sg13g2_decap_8
XFILLER_43_893 VPWR VGND sg13g2_decap_8
XFILLER_30_576 VPWR VGND sg13g2_decap_8
XFILLER_27_0 VPWR VGND sg13g2_decap_8
XFILLER_29_109 VPWR VGND sg13g2_decap_8
XFILLER_38_621 VPWR VGND sg13g2_decap_8
XFILLER_1_70 VPWR VGND sg13g2_decap_8
X_29_ net1 net9 _00_ VPWR VGND sg13g2_and2_1
XFILLER_26_816 VPWR VGND sg13g2_decap_8
XFILLER_37_175 VPWR VGND sg13g2_decap_8
XFILLER_38_698 VPWR VGND sg13g2_decap_8