*SPEF "ieee 1481-1999"
*DESIGN "N_IO4"
*DATE "13:47:27 Wednesday July 30, 2025"
*VENDOR "The OpenROAD Project"
*PROGRAM "OpenROAD"
*VERSION "341650e72dad0dc8571822ff8c5d9c5e365327f7"
*DESIGN_FLOW "NAME_SCOPE LOCAL" "PIN_CAP NONE"
*DIVIDER /
*DELIMITER :
*BUS_DELIMITER []
*T_UNIT 1 NS
*C_UNIT 1 PF
*R_UNIT 1 OHM
*L_UNIT 1 HENRY

*NAME_MAP
*1 A_I_top
*2 A_O_top
*3 A_T_top
*4 B_I_top
*5 B_O_top
*6 B_T_top
*7 C_I_top
*8 C_O_top
*9 C_T_top
*10 Ci
*11 D_I_top
*12 D_O_top
*13 D_T_top
*14 FrameData[0]
*15 FrameData[10]
*16 FrameData[11]
*17 FrameData[12]
*18 FrameData[13]
*19 FrameData[14]
*20 FrameData[15]
*21 FrameData[16]
*22 FrameData[17]
*23 FrameData[18]
*24 FrameData[19]
*25 FrameData[1]
*26 FrameData[20]
*27 FrameData[21]
*28 FrameData[22]
*29 FrameData[23]
*30 FrameData[24]
*31 FrameData[25]
*32 FrameData[26]
*33 FrameData[27]
*34 FrameData[28]
*35 FrameData[29]
*36 FrameData[2]
*37 FrameData[30]
*38 FrameData[31]
*39 FrameData[3]
*40 FrameData[4]
*41 FrameData[5]
*42 FrameData[6]
*43 FrameData[7]
*44 FrameData[8]
*45 FrameData[9]
*46 FrameData_O[0]
*47 FrameData_O[10]
*48 FrameData_O[11]
*49 FrameData_O[12]
*50 FrameData_O[13]
*51 FrameData_O[14]
*52 FrameData_O[15]
*53 FrameData_O[16]
*54 FrameData_O[17]
*55 FrameData_O[18]
*56 FrameData_O[19]
*57 FrameData_O[1]
*58 FrameData_O[20]
*59 FrameData_O[21]
*60 FrameData_O[22]
*61 FrameData_O[23]
*62 FrameData_O[24]
*63 FrameData_O[25]
*64 FrameData_O[26]
*65 FrameData_O[27]
*66 FrameData_O[28]
*67 FrameData_O[29]
*68 FrameData_O[2]
*69 FrameData_O[30]
*70 FrameData_O[31]
*71 FrameData_O[3]
*72 FrameData_O[4]
*73 FrameData_O[5]
*74 FrameData_O[6]
*75 FrameData_O[7]
*76 FrameData_O[8]
*77 FrameData_O[9]
*78 FrameStrobe[0]
*79 FrameStrobe[10]
*80 FrameStrobe[11]
*81 FrameStrobe[12]
*82 FrameStrobe[13]
*83 FrameStrobe[14]
*84 FrameStrobe[15]
*85 FrameStrobe[16]
*86 FrameStrobe[17]
*87 FrameStrobe[18]
*88 FrameStrobe[19]
*89 FrameStrobe[1]
*90 FrameStrobe[2]
*91 FrameStrobe[3]
*92 FrameStrobe[4]
*93 FrameStrobe[5]
*94 FrameStrobe[6]
*95 FrameStrobe[7]
*96 FrameStrobe[8]
*97 FrameStrobe[9]
*98 FrameStrobe_O[0]
*99 FrameStrobe_O[10]
*100 FrameStrobe_O[11]
*101 FrameStrobe_O[12]
*102 FrameStrobe_O[13]
*103 FrameStrobe_O[14]
*104 FrameStrobe_O[15]
*105 FrameStrobe_O[16]
*106 FrameStrobe_O[17]
*107 FrameStrobe_O[18]
*108 FrameStrobe_O[19]
*109 FrameStrobe_O[1]
*110 FrameStrobe_O[2]
*111 FrameStrobe_O[3]
*112 FrameStrobe_O[4]
*113 FrameStrobe_O[5]
*114 FrameStrobe_O[6]
*115 FrameStrobe_O[7]
*116 FrameStrobe_O[8]
*117 FrameStrobe_O[9]
*118 N1END[0]
*119 N1END[1]
*120 N1END[2]
*121 N1END[3]
*122 N2END[0]
*123 N2END[1]
*124 N2END[2]
*125 N2END[3]
*126 N2END[4]
*127 N2END[5]
*128 N2END[6]
*129 N2END[7]
*130 N2MID[0]
*131 N2MID[1]
*132 N2MID[2]
*133 N2MID[3]
*134 N2MID[4]
*135 N2MID[5]
*136 N2MID[6]
*137 N2MID[7]
*138 N4END[0]
*139 N4END[10]
*140 N4END[11]
*141 N4END[12]
*142 N4END[13]
*143 N4END[14]
*144 N4END[15]
*145 N4END[1]
*146 N4END[2]
*147 N4END[3]
*148 N4END[4]
*149 N4END[5]
*150 N4END[6]
*151 N4END[7]
*152 N4END[8]
*153 N4END[9]
*154 NN4END[0]
*155 NN4END[10]
*156 NN4END[11]
*157 NN4END[12]
*158 NN4END[13]
*159 NN4END[14]
*160 NN4END[15]
*161 NN4END[1]
*162 NN4END[2]
*163 NN4END[3]
*164 NN4END[4]
*165 NN4END[5]
*166 NN4END[6]
*167 NN4END[7]
*168 NN4END[8]
*169 NN4END[9]
*170 S1BEG[0]
*171 S1BEG[1]
*172 S1BEG[2]
*173 S1BEG[3]
*174 S2BEG[0]
*175 S2BEG[1]
*176 S2BEG[2]
*177 S2BEG[3]
*178 S2BEG[4]
*179 S2BEG[5]
*180 S2BEG[6]
*181 S2BEG[7]
*182 S2BEGb[0]
*183 S2BEGb[1]
*184 S2BEGb[2]
*185 S2BEGb[3]
*186 S2BEGb[4]
*187 S2BEGb[5]
*188 S2BEGb[6]
*189 S2BEGb[7]
*190 S4BEG[0]
*191 S4BEG[10]
*192 S4BEG[11]
*193 S4BEG[12]
*194 S4BEG[13]
*195 S4BEG[14]
*196 S4BEG[15]
*197 S4BEG[1]
*198 S4BEG[2]
*199 S4BEG[3]
*200 S4BEG[4]
*201 S4BEG[5]
*202 S4BEG[6]
*203 S4BEG[7]
*204 S4BEG[8]
*205 S4BEG[9]
*206 SS4BEG[0]
*207 SS4BEG[10]
*208 SS4BEG[11]
*209 SS4BEG[12]
*210 SS4BEG[13]
*211 SS4BEG[14]
*212 SS4BEG[15]
*213 SS4BEG[1]
*214 SS4BEG[2]
*215 SS4BEG[3]
*216 SS4BEG[4]
*217 SS4BEG[5]
*218 SS4BEG[6]
*219 SS4BEG[7]
*220 SS4BEG[8]
*221 SS4BEG[9]
*222 UserCLK
*223 UserCLKo
*226 Inst_A_IO_1_bidirectional_frame_config_pass\.Q
*227 Inst_B_IO_1_bidirectional_frame_config_pass\.Q
*228 Inst_C_IO_1_bidirectional_frame_config_pass\.Q
*229 Inst_D_IO_1_bidirectional_frame_config_pass\.Q
*230 Inst_N_IO4_ConfigMem\.Inst_frame0_bit0\.Q
*231 Inst_N_IO4_ConfigMem\.Inst_frame0_bit1\.Q
*232 Inst_N_IO4_ConfigMem\.Inst_frame0_bit10\.Q
*233 Inst_N_IO4_ConfigMem\.Inst_frame0_bit11\.Q
*234 Inst_N_IO4_ConfigMem\.Inst_frame0_bit12\.Q
*235 Inst_N_IO4_ConfigMem\.Inst_frame0_bit13\.Q
*236 Inst_N_IO4_ConfigMem\.Inst_frame0_bit14\.Q
*237 Inst_N_IO4_ConfigMem\.Inst_frame0_bit15\.Q
*238 Inst_N_IO4_ConfigMem\.Inst_frame0_bit16\.Q
*239 Inst_N_IO4_ConfigMem\.Inst_frame0_bit17\.Q
*240 Inst_N_IO4_ConfigMem\.Inst_frame0_bit18\.Q
*241 Inst_N_IO4_ConfigMem\.Inst_frame0_bit19\.Q
*242 Inst_N_IO4_ConfigMem\.Inst_frame0_bit2\.Q
*243 Inst_N_IO4_ConfigMem\.Inst_frame0_bit20\.Q
*244 Inst_N_IO4_ConfigMem\.Inst_frame0_bit21\.Q
*245 Inst_N_IO4_ConfigMem\.Inst_frame0_bit22\.Q
*246 Inst_N_IO4_ConfigMem\.Inst_frame0_bit23\.Q
*247 Inst_N_IO4_ConfigMem\.Inst_frame0_bit24\.Q
*248 Inst_N_IO4_ConfigMem\.Inst_frame0_bit25\.Q
*249 Inst_N_IO4_ConfigMem\.Inst_frame0_bit26\.Q
*250 Inst_N_IO4_ConfigMem\.Inst_frame0_bit27\.Q
*251 Inst_N_IO4_ConfigMem\.Inst_frame0_bit28\.Q
*252 Inst_N_IO4_ConfigMem\.Inst_frame0_bit29\.Q
*253 Inst_N_IO4_ConfigMem\.Inst_frame0_bit3\.Q
*254 Inst_N_IO4_ConfigMem\.Inst_frame0_bit30\.Q
*255 Inst_N_IO4_ConfigMem\.Inst_frame0_bit31\.Q
*256 Inst_N_IO4_ConfigMem\.Inst_frame0_bit4\.Q
*257 Inst_N_IO4_ConfigMem\.Inst_frame0_bit5\.Q
*258 Inst_N_IO4_ConfigMem\.Inst_frame0_bit6\.Q
*259 Inst_N_IO4_ConfigMem\.Inst_frame0_bit7\.Q
*260 Inst_N_IO4_ConfigMem\.Inst_frame0_bit8\.Q
*261 Inst_N_IO4_ConfigMem\.Inst_frame0_bit9\.Q
*262 Inst_N_IO4_ConfigMem\.Inst_frame1_bit0\.Q
*263 Inst_N_IO4_ConfigMem\.Inst_frame1_bit1\.Q
*264 Inst_N_IO4_ConfigMem\.Inst_frame1_bit10\.Q
*265 Inst_N_IO4_ConfigMem\.Inst_frame1_bit11\.Q
*266 Inst_N_IO4_ConfigMem\.Inst_frame1_bit12\.Q
*267 Inst_N_IO4_ConfigMem\.Inst_frame1_bit13\.Q
*268 Inst_N_IO4_ConfigMem\.Inst_frame1_bit14\.Q
*269 Inst_N_IO4_ConfigMem\.Inst_frame1_bit15\.Q
*270 Inst_N_IO4_ConfigMem\.Inst_frame1_bit16\.Q
*271 Inst_N_IO4_ConfigMem\.Inst_frame1_bit17\.Q
*272 Inst_N_IO4_ConfigMem\.Inst_frame1_bit18\.Q
*273 Inst_N_IO4_ConfigMem\.Inst_frame1_bit19\.Q
*274 Inst_N_IO4_ConfigMem\.Inst_frame1_bit2\.Q
*275 Inst_N_IO4_ConfigMem\.Inst_frame1_bit20\.Q
*276 Inst_N_IO4_ConfigMem\.Inst_frame1_bit21\.Q
*277 Inst_N_IO4_ConfigMem\.Inst_frame1_bit22\.Q
*278 Inst_N_IO4_ConfigMem\.Inst_frame1_bit23\.Q
*279 Inst_N_IO4_ConfigMem\.Inst_frame1_bit24\.Q
*280 Inst_N_IO4_ConfigMem\.Inst_frame1_bit25\.Q
*281 Inst_N_IO4_ConfigMem\.Inst_frame1_bit26\.Q
*282 Inst_N_IO4_ConfigMem\.Inst_frame1_bit27\.Q
*283 Inst_N_IO4_ConfigMem\.Inst_frame1_bit28\.Q
*284 Inst_N_IO4_ConfigMem\.Inst_frame1_bit29\.Q
*285 Inst_N_IO4_ConfigMem\.Inst_frame1_bit3\.Q
*286 Inst_N_IO4_ConfigMem\.Inst_frame1_bit30\.Q
*287 Inst_N_IO4_ConfigMem\.Inst_frame1_bit31\.Q
*288 Inst_N_IO4_ConfigMem\.Inst_frame1_bit4\.Q
*289 Inst_N_IO4_ConfigMem\.Inst_frame1_bit5\.Q
*290 Inst_N_IO4_ConfigMem\.Inst_frame1_bit6\.Q
*291 Inst_N_IO4_ConfigMem\.Inst_frame1_bit7\.Q
*292 Inst_N_IO4_ConfigMem\.Inst_frame1_bit8\.Q
*293 Inst_N_IO4_ConfigMem\.Inst_frame1_bit9\.Q
*294 Inst_N_IO4_ConfigMem\.Inst_frame2_bit0\.Q
*295 Inst_N_IO4_ConfigMem\.Inst_frame2_bit1\.Q
*296 Inst_N_IO4_ConfigMem\.Inst_frame2_bit10\.Q
*297 Inst_N_IO4_ConfigMem\.Inst_frame2_bit11\.Q
*298 Inst_N_IO4_ConfigMem\.Inst_frame2_bit12\.Q
*299 Inst_N_IO4_ConfigMem\.Inst_frame2_bit13\.Q
*300 Inst_N_IO4_ConfigMem\.Inst_frame2_bit14\.Q
*301 Inst_N_IO4_ConfigMem\.Inst_frame2_bit15\.Q
*302 Inst_N_IO4_ConfigMem\.Inst_frame2_bit16\.Q
*303 Inst_N_IO4_ConfigMem\.Inst_frame2_bit17\.Q
*304 Inst_N_IO4_ConfigMem\.Inst_frame2_bit18\.Q
*305 Inst_N_IO4_ConfigMem\.Inst_frame2_bit19\.Q
*306 Inst_N_IO4_ConfigMem\.Inst_frame2_bit2\.Q
*307 Inst_N_IO4_ConfigMem\.Inst_frame2_bit20\.Q
*308 Inst_N_IO4_ConfigMem\.Inst_frame2_bit21\.Q
*309 Inst_N_IO4_ConfigMem\.Inst_frame2_bit22\.Q
*310 Inst_N_IO4_ConfigMem\.Inst_frame2_bit23\.Q
*311 Inst_N_IO4_ConfigMem\.Inst_frame2_bit24\.Q
*312 Inst_N_IO4_ConfigMem\.Inst_frame2_bit25\.Q
*313 Inst_N_IO4_ConfigMem\.Inst_frame2_bit26\.Q
*314 Inst_N_IO4_ConfigMem\.Inst_frame2_bit27\.Q
*315 Inst_N_IO4_ConfigMem\.Inst_frame2_bit28\.Q
*316 Inst_N_IO4_ConfigMem\.Inst_frame2_bit29\.Q
*317 Inst_N_IO4_ConfigMem\.Inst_frame2_bit3\.Q
*318 Inst_N_IO4_ConfigMem\.Inst_frame2_bit30\.Q
*319 Inst_N_IO4_ConfigMem\.Inst_frame2_bit31\.Q
*320 Inst_N_IO4_ConfigMem\.Inst_frame2_bit4\.Q
*321 Inst_N_IO4_ConfigMem\.Inst_frame2_bit5\.Q
*322 Inst_N_IO4_ConfigMem\.Inst_frame2_bit6\.Q
*323 Inst_N_IO4_ConfigMem\.Inst_frame2_bit7\.Q
*324 Inst_N_IO4_ConfigMem\.Inst_frame2_bit8\.Q
*325 Inst_N_IO4_ConfigMem\.Inst_frame2_bit9\.Q
*326 Inst_N_IO4_ConfigMem\.Inst_frame3_bit0\.Q
*327 Inst_N_IO4_ConfigMem\.Inst_frame3_bit1\.Q
*328 Inst_N_IO4_ConfigMem\.Inst_frame3_bit10\.Q
*329 Inst_N_IO4_ConfigMem\.Inst_frame3_bit11\.Q
*330 Inst_N_IO4_ConfigMem\.Inst_frame3_bit12\.Q
*331 Inst_N_IO4_ConfigMem\.Inst_frame3_bit13\.Q
*332 Inst_N_IO4_ConfigMem\.Inst_frame3_bit14\.Q
*333 Inst_N_IO4_ConfigMem\.Inst_frame3_bit15\.Q
*334 Inst_N_IO4_ConfigMem\.Inst_frame3_bit16\.Q
*335 Inst_N_IO4_ConfigMem\.Inst_frame3_bit17\.Q
*336 Inst_N_IO4_ConfigMem\.Inst_frame3_bit18\.Q
*337 Inst_N_IO4_ConfigMem\.Inst_frame3_bit19\.Q
*338 Inst_N_IO4_ConfigMem\.Inst_frame3_bit2\.Q
*339 Inst_N_IO4_ConfigMem\.Inst_frame3_bit20\.Q
*340 Inst_N_IO4_ConfigMem\.Inst_frame3_bit21\.Q
*341 Inst_N_IO4_ConfigMem\.Inst_frame3_bit22\.Q
*342 Inst_N_IO4_ConfigMem\.Inst_frame3_bit23\.Q
*343 Inst_N_IO4_ConfigMem\.Inst_frame3_bit24\.Q
*344 Inst_N_IO4_ConfigMem\.Inst_frame3_bit25\.Q
*345 Inst_N_IO4_ConfigMem\.Inst_frame3_bit26\.Q
*346 Inst_N_IO4_ConfigMem\.Inst_frame3_bit27\.Q
*347 Inst_N_IO4_ConfigMem\.Inst_frame3_bit28\.Q
*348 Inst_N_IO4_ConfigMem\.Inst_frame3_bit29\.Q
*349 Inst_N_IO4_ConfigMem\.Inst_frame3_bit3\.Q
*350 Inst_N_IO4_ConfigMem\.Inst_frame3_bit30\.Q
*351 Inst_N_IO4_ConfigMem\.Inst_frame3_bit31\.Q
*352 Inst_N_IO4_ConfigMem\.Inst_frame3_bit4\.Q
*353 Inst_N_IO4_ConfigMem\.Inst_frame3_bit5\.Q
*354 Inst_N_IO4_ConfigMem\.Inst_frame3_bit6\.Q
*355 Inst_N_IO4_ConfigMem\.Inst_frame3_bit7\.Q
*356 Inst_N_IO4_ConfigMem\.Inst_frame3_bit8\.Q
*357 Inst_N_IO4_ConfigMem\.Inst_frame3_bit9\.Q
*358 Inst_N_IO4_ConfigMem\.Inst_frame4_bit28\.Q
*359 Inst_N_IO4_ConfigMem\.Inst_frame4_bit29\.Q
*360 Inst_N_IO4_ConfigMem\.Inst_frame4_bit30\.Q
*361 Inst_N_IO4_ConfigMem\.Inst_frame4_bit31\.Q
*362 Inst_N_IO4_switch_matrix\.S1BEG0
*363 Inst_N_IO4_switch_matrix\.S1BEG1
*364 Inst_N_IO4_switch_matrix\.S1BEG2
*365 Inst_N_IO4_switch_matrix\.S1BEG3
*366 Inst_N_IO4_switch_matrix\.S2BEG0
*367 Inst_N_IO4_switch_matrix\.S2BEG1
*368 Inst_N_IO4_switch_matrix\.S2BEG2
*369 Inst_N_IO4_switch_matrix\.S2BEG3
*370 Inst_N_IO4_switch_matrix\.S2BEG4
*371 Inst_N_IO4_switch_matrix\.S2BEG5
*372 Inst_N_IO4_switch_matrix\.S2BEG6
*373 Inst_N_IO4_switch_matrix\.S2BEG7
*374 Inst_N_IO4_switch_matrix\.S2BEGb0
*375 Inst_N_IO4_switch_matrix\.S2BEGb1
*376 Inst_N_IO4_switch_matrix\.S2BEGb2
*377 Inst_N_IO4_switch_matrix\.S2BEGb3
*378 Inst_N_IO4_switch_matrix\.S2BEGb4
*379 Inst_N_IO4_switch_matrix\.S2BEGb5
*380 Inst_N_IO4_switch_matrix\.S2BEGb6
*381 Inst_N_IO4_switch_matrix\.S2BEGb7
*382 Inst_N_IO4_switch_matrix\.S4BEG0
*383 Inst_N_IO4_switch_matrix\.S4BEG1
*384 Inst_N_IO4_switch_matrix\.S4BEG10
*385 Inst_N_IO4_switch_matrix\.S4BEG11
*386 Inst_N_IO4_switch_matrix\.S4BEG12
*387 Inst_N_IO4_switch_matrix\.S4BEG13
*388 Inst_N_IO4_switch_matrix\.S4BEG14
*389 Inst_N_IO4_switch_matrix\.S4BEG15
*390 Inst_N_IO4_switch_matrix\.S4BEG2
*391 Inst_N_IO4_switch_matrix\.S4BEG3
*392 Inst_N_IO4_switch_matrix\.S4BEG4
*393 Inst_N_IO4_switch_matrix\.S4BEG5
*394 Inst_N_IO4_switch_matrix\.S4BEG6
*395 Inst_N_IO4_switch_matrix\.S4BEG7
*396 Inst_N_IO4_switch_matrix\.S4BEG8
*397 Inst_N_IO4_switch_matrix\.S4BEG9
*398 Inst_N_IO4_switch_matrix\.SS4BEG0
*399 Inst_N_IO4_switch_matrix\.SS4BEG1
*400 Inst_N_IO4_switch_matrix\.SS4BEG10
*401 Inst_N_IO4_switch_matrix\.SS4BEG11
*402 Inst_N_IO4_switch_matrix\.SS4BEG12
*403 Inst_N_IO4_switch_matrix\.SS4BEG13
*404 Inst_N_IO4_switch_matrix\.SS4BEG14
*405 Inst_N_IO4_switch_matrix\.SS4BEG15
*406 Inst_N_IO4_switch_matrix\.SS4BEG2
*407 Inst_N_IO4_switch_matrix\.SS4BEG3
*408 Inst_N_IO4_switch_matrix\.SS4BEG4
*409 Inst_N_IO4_switch_matrix\.SS4BEG5
*410 Inst_N_IO4_switch_matrix\.SS4BEG6
*411 Inst_N_IO4_switch_matrix\.SS4BEG7
*412 Inst_N_IO4_switch_matrix\.SS4BEG8
*413 Inst_N_IO4_switch_matrix\.SS4BEG9
*414 UserCLK_regs
*415 _000_
*416 _001_
*417 _002_
*418 _003_
*419 _004_
*420 _005_
*421 _006_
*422 _007_
*423 _008_
*424 _009_
*425 _010_
*426 _011_
*427 _012_
*428 _013_
*429 _014_
*430 _015_
*431 _016_
*432 _017_
*433 _018_
*434 _019_
*435 _020_
*436 _021_
*437 _022_
*438 _023_
*439 _024_
*440 _025_
*441 _026_
*442 _027_
*443 _028_
*444 _029_
*445 _030_
*446 _031_
*447 _032_
*448 _033_
*449 _034_
*450 _035_
*451 _036_
*452 _037_
*453 _038_
*454 _039_
*455 _040_
*456 _041_
*457 _042_
*458 _043_
*459 _044_
*460 _045_
*461 _046_
*462 _047_
*463 _048_
*464 _049_
*465 _050_
*466 _051_
*467 _052_
*468 _053_
*469 _054_
*470 _055_
*471 _056_
*472 _057_
*473 _058_
*474 _059_
*475 _060_
*476 _061_
*477 _062_
*478 _063_
*479 _064_
*480 _065_
*481 _066_
*482 _067_
*483 _068_
*484 _069_
*485 _070_
*486 _071_
*487 _072_
*488 _073_
*489 _074_
*490 _075_
*491 _076_
*492 _077_
*493 _078_
*494 _079_
*495 _080_
*496 _081_
*497 _082_
*498 clknet_0_UserCLK
*499 clknet_0_UserCLK_regs
*500 clknet_1_0__leaf_UserCLK
*501 clknet_1_0__leaf_UserCLK_regs
*502 clknet_1_1__leaf_UserCLK_regs
*503 FILLER_0_0
*504 FILLER_0_125
*505 FILLER_0_153
*506 FILLER_0_160
*507 FILLER_0_167
*508 FILLER_0_174
*509 FILLER_0_193
*510 FILLER_0_200
*511 FILLER_0_202
*512 FILLER_0_23
*513 FILLER_0_411
*514 FILLER_0_421
*515 FILLER_0_423
*516 FILLER_10_0
*517 FILLER_10_153
*518 FILLER_10_155
*519 FILLER_10_194
*520 FILLER_10_200
*521 FILLER_10_247
*522 FILLER_10_273
*523 FILLER_10_315
*524 FILLER_10_343
*525 FILLER_10_39
*526 FILLER_10_393
*527 FILLER_10_412
*528 FILLER_10_421
*529 FILLER_10_423
*530 FILLER_10_48
*531 FILLER_10_50
*532 FILLER_10_85
*533 FILLER_11_0
*534 FILLER_11_175
*535 FILLER_11_227
*536 FILLER_11_29
*537 FILLER_11_327
*538 FILLER_11_329
*539 FILLER_11_421
*540 FILLER_11_423
*541 FILLER_11_87
*542 FILLER_11_89
*543 FILLER_1_0
*544 FILLER_1_130
*545 FILLER_1_156
*546 FILLER_1_196
*547 FILLER_1_203
*548 FILLER_1_238
*549 FILLER_1_285
*550 FILLER_1_287
*551 FILLER_1_317
*552 FILLER_1_343
*553 FILLER_1_423
*554 FILLER_1_61
*555 FILLER_2_0
*556 FILLER_2_157
*557 FILLER_2_164
*558 FILLER_2_171
*559 FILLER_2_178
*560 FILLER_2_185
*561 FILLER_2_192
*562 FILLER_2_213
*563 FILLER_2_257
*564 FILLER_2_348
*565 FILLER_2_350
*566 FILLER_2_423
*567 FILLER_3_144
*568 FILLER_3_151
*569 FILLER_3_153
*570 FILLER_3_188
*571 FILLER_3_199
*572 FILLER_3_218
*573 FILLER_3_222
*574 FILLER_3_245
*575 FILLER_3_247
*576 FILLER_3_277
*577 FILLER_3_279
*578 FILLER_3_301
*579 FILLER_3_328
*580 FILLER_3_330
*581 FILLER_3_369
*582 FILLER_3_371
*583 FILLER_3_421
*584 FILLER_3_423
*585 FILLER_3_51
*586 FILLER_3_79
*587 FILLER_4_0
*588 FILLER_4_155
*589 FILLER_4_162
*590 FILLER_4_190
*591 FILLER_4_194
*592 FILLER_4_234
*593 FILLER_4_238
*594 FILLER_4_277
*595 FILLER_4_317
*596 FILLER_4_348
*597 FILLER_4_379
*598 FILLER_4_402
*599 FILLER_4_411
*600 FILLER_4_421
*601 FILLER_4_423
*602 FILLER_4_71
*603 FILLER_5_0
*604 FILLER_5_135
*605 FILLER_5_18
*606 FILLER_5_180
*607 FILLER_5_187
*608 FILLER_5_194
*609 FILLER_5_202
*610 FILLER_5_210
*611 FILLER_5_234
*612 FILLER_5_241
*613 FILLER_5_260
*614 FILLER_5_289
*615 FILLER_5_291
*616 FILLER_5_330
*617 FILLER_5_332
*618 FILLER_5_34
*619 FILLER_5_358
*620 FILLER_5_406
*621 FILLER_5_408
*622 FILLER_5_421
*623 FILLER_5_423
*624 FILLER_5_95
*625 FILLER_6_100
*626 FILLER_6_139
*627 FILLER_6_146
*628 FILLER_6_153
*629 FILLER_6_155
*630 FILLER_6_194
*631 FILLER_6_222
*632 FILLER_6_231
*633 FILLER_6_235
*634 FILLER_6_265
*635 FILLER_6_269
*636 FILLER_6_274
*637 FILLER_6_321
*638 FILLER_6_348
*639 FILLER_6_370
*640 FILLER_6_372
*641 FILLER_6_398
*642 FILLER_6_402
*643 FILLER_6_407
*644 FILLER_6_421
*645 FILLER_6_423
*646 FILLER_6_71
*647 FILLER_7_104
*648 FILLER_7_149
*649 FILLER_7_172
*650 FILLER_7_174
*651 FILLER_7_200
*652 FILLER_7_22
*653 FILLER_7_245
*654 FILLER_7_264
*655 FILLER_7_306
*656 FILLER_7_374
*657 FILLER_7_393
*658 FILLER_7_412
*659 FILLER_7_421
*660 FILLER_7_423
*661 FILLER_7_54
*662 FILLER_7_86
*663 FILLER_8_107
*664 FILLER_8_206
*665 FILLER_8_256
*666 FILLER_8_328
*667 FILLER_8_385
*668 FILLER_8_387
*669 FILLER_8_421
*670 FILLER_8_423
*671 FILLER_8_59
*672 FILLER_9_0
*673 FILLER_9_112
*674 FILLER_9_158
*675 FILLER_9_197
*676 FILLER_9_199
*677 FILLER_9_225
*678 FILLER_9_287
*679 FILLER_9_340
*680 FILLER_9_36
*681 FILLER_9_389
*682 FILLER_9_423
*683 FILLER_9_65
*684 _083_
*685 _084_
*686 _085_
*687 _086_
*688 _087_
*689 _088_
*690 _089_
*691 _090_
*692 _091_
*693 _092_
*694 _093_
*695 _094_
*696 _095_
*697 _096_
*698 _097_
*699 _098_
*700 _099_
*701 _100_
*702 _101_
*703 _102_
*704 _103_
*705 _104_
*706 _105_
*707 _106_
*708 _107_
*709 _108_
*710 _109_
*711 _110_
*712 _111_
*713 _112_
*714 _113_
*715 _114_
*716 _115_
*717 _116_
*718 _117_
*719 _118_
*720 _119_
*721 _120_
*722 _121_
*723 _122_
*724 _123_
*725 _124_
*726 _125_
*727 _126_
*728 _127_
*729 _128_
*730 _129_
*731 _130_
*732 _131_
*733 _132_
*734 _133_
*735 _134_
*736 _135_
*737 _136_
*738 _137_
*739 _138_
*740 _139_
*741 _140_
*742 _141_
*743 _142_
*744 _143_
*745 _144_
*746 _145_
*747 _146_
*748 _147_
*749 _148_
*750 _149_
*751 _150_
*752 _151_
*753 _152_
*754 _153_
*755 _154_
*756 _155_
*757 _156_
*758 _157_
*759 _158_
*760 _159_
*761 _160_
*762 _161_
*763 _162_
*764 _163_
*765 _164_
*766 _165_
*767 _166_
*768 _167_
*769 _168_
*770 _169_
*771 _170_
*772 _171_
*773 _172_
*774 _173_
*775 _174_
*776 _175_
*777 _176_
*778 _177_
*779 _178_
*780 _179_
*781 _180_
*782 _181_
*783 _182_
*784 _183_
*785 _184_
*786 _185_
*787 _186_
*788 _187_
*789 _188_
*790 _189_
*791 _190_
*792 _191_
*793 _192_
*794 _193_
*795 _194_
*796 _195_
*797 _196_
*798 _197_
*799 _198_
*800 _199_
*801 _200_
*802 _201_
*803 _202_
*804 _203_
*805 _204_
*806 _205_
*807 _206_
*808 _207_
*809 _208_
*810 _209_
*811 _210_
*812 _211_
*813 _212_
*814 _213_
*815 _214_
*816 _215_
*817 _216_
*818 _217_
*819 _218_
*820 _219_
*821 _220_
*822 _221_
*823 _222_
*824 _223_
*825 _224_
*826 _225_
*827 _226_
*828 _227_
*829 _228_
*830 _229_
*831 _230_
*832 _231_
*833 _232_
*834 _233_
*835 _234_
*836 _235_
*837 _236_
*838 _237_
*839 _238_
*840 _239_
*841 _240_
*842 _241_
*843 _242_
*844 _243_
*845 _244_
*846 _245_
*847 _246_
*848 _247_
*849 _248_
*850 _249_
*851 _250_
*852 _251_
*853 _252_
*854 _253_
*855 _254_
*856 _255_
*857 _256_
*858 _257_
*859 _258_
*860 _259_
*861 _260_
*862 _261_
*863 _262_
*864 _263_
*865 _264_
*866 _265_
*867 _266_
*868 _267_
*869 _268_
*870 _269_
*871 _270_
*872 _271_
*873 _272_
*874 _273_
*875 _274_
*876 _275_
*877 _276_
*878 _277_
*879 _278_
*880 _279_
*881 _280_
*882 _281_
*883 _282_
*884 _283_
*885 _284_
*886 _285_
*887 _286_
*888 _287_
*889 _288_
*890 _289_
*891 _290_
*892 _291_
*893 _292_
*894 _293_
*895 _294_
*896 _295_
*897 _296_
*898 _297_
*899 _298_
*900 _299_
*901 _300_
*902 _301_
*903 _302_
*904 _303_
*905 _304_
*906 _305_
*907 _306_
*908 _307_
*909 _308_
*910 _309_
*911 _310_
*912 _311_
*913 _312_
*914 _313_
*915 _314_
*916 _315_
*917 _316_
*918 _317_
*919 _318_
*920 _319_
*921 _320_
*922 _321_
*923 _322_
*924 _323_
*925 _324_
*926 _325_
*927 _326_
*928 _327_
*929 _328_
*930 _329_
*931 _330_
*932 _331_
*933 _332_
*934 _333_
*935 _334_
*936 _335_
*937 _336_
*938 _337_
*939 _338_
*940 _339_
*941 _340_
*942 _341_
*943 _342_
*944 _343_
*945 _344_
*946 _345_
*947 _346_
*948 _347_
*949 _348_
*950 _349_
*951 _350_
*952 _351_
*953 _352_
*954 _353_
*955 _354_
*956 _355_
*957 _356_
*958 _357_
*959 _358_
*960 _359_
*961 _360_
*962 _361_
*963 _362_
*964 _363_
*965 _364_
*966 _365_
*967 _366_
*968 _367_
*969 _368_
*970 _369_
*971 _370_
*972 _371_
*973 _372_
*974 _373_
*975 _374_
*976 _375_
*977 _376_
*978 _377_
*979 _378_
*980 _379_
*981 _380_
*982 _381_
*983 _382_
*984 _383_
*985 _384_
*986 _385_
*987 _386_
*988 _387_
*989 _388_
*990 _389_
*991 _390_
*992 _391_
*993 _392_
*994 _393_
*995 _394_
*996 _395_
*997 _396_
*998 _397_
*999 _398_
*1000 _399_
*1001 _400_
*1002 _401_
*1003 _402_
*1004 _403_
*1005 _404_
*1006 _405_
*1007 _406_
*1008 _407_
*1009 _408_
*1010 _409_
*1011 _410_
*1012 _411_
*1013 _412_
*1014 _413_
*1015 _414_
*1016 _415_
*1017 _416_
*1018 _417_
*1019 _418_
*1020 _419_
*1021 _420_
*1022 _421_
*1023 _422_
*1024 _423_
*1025 _424_
*1026 _425_
*1027 _426_
*1028 _427_
*1029 _428_
*1030 _429_
*1031 _430_
*1032 _431_
*1033 _432_
*1034 _433_
*1035 _434_
*1036 _435_
*1037 _436_
*1038 _437_
*1039 _438_
*1040 _439_
*1041 _440_
*1042 _441_
*1043 _442_
*1044 _443_
*1045 _444_
*1046 _445_
*1047 _446_
*1048 _447_
*1049 _448_
*1050 _449_
*1051 _450_
*1052 _451_
*1053 _452_
*1054 _453_
*1055 _454_
*1056 _455_
*1057 _456_
*1058 _457_
*1059 _458_
*1060 _459_
*1061 _460_
*1062 _461_
*1063 _462_
*1064 _463_
*1065 _464_
*1066 _465_
*1067 _466_
*1068 clkbuf_0_UserCLK
*1069 clkbuf_0_UserCLK_regs
*1070 clkbuf_1_0__f_UserCLK
*1071 clkbuf_1_0__f_UserCLK_regs
*1072 clkbuf_1_1__f_UserCLK_regs
*1073 clkbuf_regs_0_UserCLK

*PORTS
A_I_top O
A_O_top I
A_T_top O
B_I_top O
B_O_top I
B_T_top O
C_I_top O
C_O_top I
C_T_top O
Ci I
D_I_top O
D_O_top I
D_T_top O
FrameData[0] I
FrameData[10] I
FrameData[11] I
FrameData[12] I
FrameData[13] I
FrameData[14] I
FrameData[15] I
FrameData[16] I
FrameData[17] I
FrameData[18] I
FrameData[19] I
FrameData[1] I
FrameData[20] I
FrameData[21] I
FrameData[22] I
FrameData[23] I
FrameData[24] I
FrameData[25] I
FrameData[26] I
FrameData[27] I
FrameData[28] I
FrameData[29] I
FrameData[2] I
FrameData[30] I
FrameData[31] I
FrameData[3] I
FrameData[4] I
FrameData[5] I
FrameData[6] I
FrameData[7] I
FrameData[8] I
FrameData[9] I
FrameData_O[0] O
FrameData_O[10] O
FrameData_O[11] O
FrameData_O[12] O
FrameData_O[13] O
FrameData_O[14] O
FrameData_O[15] O
FrameData_O[16] O
FrameData_O[17] O
FrameData_O[18] O
FrameData_O[19] O
FrameData_O[1] O
FrameData_O[20] O
FrameData_O[21] O
FrameData_O[22] O
FrameData_O[23] O
FrameData_O[24] O
FrameData_O[25] O
FrameData_O[26] O
FrameData_O[27] O
FrameData_O[28] O
FrameData_O[29] O
FrameData_O[2] O
FrameData_O[30] O
FrameData_O[31] O
FrameData_O[3] O
FrameData_O[4] O
FrameData_O[5] O
FrameData_O[6] O
FrameData_O[7] O
FrameData_O[8] O
FrameData_O[9] O
FrameStrobe[0] I
FrameStrobe[10] I
FrameStrobe[11] I
FrameStrobe[12] I
FrameStrobe[13] I
FrameStrobe[14] I
FrameStrobe[15] I
FrameStrobe[16] I
FrameStrobe[17] I
FrameStrobe[18] I
FrameStrobe[19] I
FrameStrobe[1] I
FrameStrobe[2] I
FrameStrobe[3] I
FrameStrobe[4] I
FrameStrobe[5] I
FrameStrobe[6] I
FrameStrobe[7] I
FrameStrobe[8] I
FrameStrobe[9] I
FrameStrobe_O[0] O
FrameStrobe_O[10] O
FrameStrobe_O[11] O
FrameStrobe_O[12] O
FrameStrobe_O[13] O
FrameStrobe_O[14] O
FrameStrobe_O[15] O
FrameStrobe_O[16] O
FrameStrobe_O[17] O
FrameStrobe_O[18] O
FrameStrobe_O[19] O
FrameStrobe_O[1] O
FrameStrobe_O[2] O
FrameStrobe_O[3] O
FrameStrobe_O[4] O
FrameStrobe_O[5] O
FrameStrobe_O[6] O
FrameStrobe_O[7] O
FrameStrobe_O[8] O
FrameStrobe_O[9] O
N1END[0] I
N1END[1] I
N1END[2] I
N1END[3] I
N2END[0] I
N2END[1] I
N2END[2] I
N2END[3] I
N2END[4] I
N2END[5] I
N2END[6] I
N2END[7] I
N2MID[0] I
N2MID[1] I
N2MID[2] I
N2MID[3] I
N2MID[4] I
N2MID[5] I
N2MID[6] I
N2MID[7] I
N4END[0] I
N4END[10] I
N4END[11] I
N4END[12] I
N4END[13] I
N4END[14] I
N4END[15] I
N4END[1] I
N4END[2] I
N4END[3] I
N4END[4] I
N4END[5] I
N4END[6] I
N4END[7] I
N4END[8] I
N4END[9] I
NN4END[0] I
NN4END[10] I
NN4END[11] I
NN4END[12] I
NN4END[13] I
NN4END[14] I
NN4END[15] I
NN4END[1] I
NN4END[2] I
NN4END[3] I
NN4END[4] I
NN4END[5] I
NN4END[6] I
NN4END[7] I
NN4END[8] I
NN4END[9] I
S1BEG[0] O
S1BEG[1] O
S1BEG[2] O
S1BEG[3] O
S2BEG[0] O
S2BEG[1] O
S2BEG[2] O
S2BEG[3] O
S2BEG[4] O
S2BEG[5] O
S2BEG[6] O
S2BEG[7] O
S2BEGb[0] O
S2BEGb[1] O
S2BEGb[2] O
S2BEGb[3] O
S2BEGb[4] O
S2BEGb[5] O
S2BEGb[6] O
S2BEGb[7] O
S4BEG[0] O
S4BEG[10] O
S4BEG[11] O
S4BEG[12] O
S4BEG[13] O
S4BEG[14] O
S4BEG[15] O
S4BEG[1] O
S4BEG[2] O
S4BEG[3] O
S4BEG[4] O
S4BEG[5] O
S4BEG[6] O
S4BEG[7] O
S4BEG[8] O
S4BEG[9] O
SS4BEG[0] O
SS4BEG[10] O
SS4BEG[11] O
SS4BEG[12] O
SS4BEG[13] O
SS4BEG[14] O
SS4BEG[15] O
SS4BEG[1] O
SS4BEG[2] O
SS4BEG[3] O
SS4BEG[4] O
SS4BEG[5] O
SS4BEG[6] O
SS4BEG[7] O
SS4BEG[8] O
SS4BEG[9] O
UserCLK I
UserCLKo O

*D_NET *1 0.0116876
*CONN
*P A_I_top O
*I *780:Y O *D sg13g2_o21ai_1
*CAP
1 A_I_top 0.000524621
2 *780:Y 0.00095518
3 *1:30 0.0016361
4 *1:22 0.00237721
5 *1:16 0.00222091
6 A_I_top *746:A2 0
7 A_I_top *2:33 0
8 A_I_top *122:61 0.000144125
9 *1:16 *696:A0 0.000143908
10 *1:16 *780:B1 8.00842e-05
11 *1:16 *825:GATE 0
12 *1:16 *12:25 0
13 *1:16 *120:13 8.00394e-05
14 *1:22 *18:34 0
15 *1:22 *19:13 0.00166198
16 *1:22 *129:39 0.000232418
17 *1:22 *129:41 0.00145657
18 *1:22 *136:45 0.00017445
19 *1:30 *34:25 0
20 *1:30 *37:13 0
21 *1:30 *122:67 0
22 *1:30 *126:143 0
*RES
1 *780:Y *1:16 48.3945 
2 *1:16 *1:22 36.7375 
3 *1:22 *1:30 49.1052 
4 *1:30 A_I_top 45.2736 
*END

*D_NET *2 0.0566679
*CONN
*P A_O_top I
*I *808:A2 I *D sg13g2_mux4_1
*I *796:A3 I *D sg13g2_mux4_1
*I *786:A3 I *D sg13g2_mux4_1
*I *955:D I *D sg13g2_dfrbpq_1
*I *806:A2 I *D sg13g2_mux4_1
*I *810:A1 I *D sg13g2_mux4_1
*I *812:A1 I *D sg13g2_mux4_1
*I *697:A1 I *D sg13g2_mux4_1
*CAP
1 A_O_top 0.00224437
2 *808:A2 0.000119491
3 *796:A3 0.000939646
4 *786:A3 0
5 *955:D 0.000452592
6 *806:A2 0.000459458
7 *810:A1 0
8 *812:A1 0.00020043
9 *697:A1 6.09699e-05
10 *2:153 0.00146945
11 *2:138 0.001181
12 *2:121 0.0020889
13 *2:104 0.00229724
14 *2:98 0.00154482
15 *2:87 0.00118326
16 *2:72 0.00103684
17 *2:64 0.00144121
18 *2:60 0.00147601
19 *2:39 0.00162954
20 *2:33 0.00355233
21 *697:A1 *695:S1 0
22 *697:A1 *697:A2 0
23 *697:A1 *359:10 2.21754e-05
24 *796:A3 *86:13 0
25 *796:A3 *88:9 0
26 *796:A3 *148:68 0
27 *806:A2 *806:A1 0.000175693
28 *806:A2 *28:59 0.000393736
29 *806:A2 *29:59 0
30 *806:A2 *89:187 0.00108606
31 *806:A2 *90:166 0
32 *806:A2 *396:12 0
33 *808:A2 *45:66 0.000285836
34 *808:A2 *406:8 0.000263739
35 *812:A1 *156:11 0.000272528
36 *812:A1 *157:25 0
37 *955:D *22:55 0.000369887
38 *955:D *89:371 0
39 *955:D *136:144 0
40 *955:D *222:13 0.00069295
41 *2:33 *704:A3 0
42 *2:33 *706:A 0.000401584
43 *2:33 *742:A1 0
44 *2:33 *746:A2 0
45 *2:33 *747:A0 0
46 *2:33 *747:S 0
47 *2:33 *78:137 0
48 *2:33 *122:79 0
49 *2:33 *123:53 0.00071542
50 *2:33 *124:83 7.44378e-05
51 *2:33 *130:112 0.000661877
52 *2:33 *136:57 0.000234224
53 *2:33 *136:76 0.000480267
54 *2:33 *238:26 0
55 *2:33 *240:18 0.000126354
56 *2:33 *240:27 0
57 *2:33 *241:70 0
58 *2:33 *243:32 0.000175648
59 *2:33 *248:26 0.000337302
60 *2:33 *248:50 5.30319e-05
61 *2:33 *415:10 0.000178206
62 *2:33 *415:16 0.0010388
63 *2:33 *456:12 2.14736e-05
64 *2:33 *457:14 0.000499887
65 *2:39 *694:A2 0
66 *2:39 *696:A1 0.000240331
67 *2:39 *824:GATE 0
68 *2:39 *27:26 0
69 *2:39 *92:54 0
70 *2:39 *128:38 0
71 *2:39 *133:78 0.00135432
72 *2:39 *248:50 0.00012816
73 *2:39 *248:67 0.000265247
74 *2:39 *359:10 0.00130238
75 *2:60 *696:A1 7.51285e-05
76 *2:60 *91:147 0.000234311
77 *2:60 *229:99 0.000143908
78 *2:60 *257:88 0.000111567
79 *2:60 *485:16 0.000134789
80 *2:64 *8:34 0
81 *2:64 *16:19 0.00362357
82 *2:64 *167:40 7.48517e-05
83 *2:64 *258:31 0.00134769
84 *2:72 *156:11 0.000111567
85 *2:72 *169:46 7.52149e-05
86 *2:87 *812:A3 0.000127469
87 *2:87 *8:50 0
88 *2:87 *90:37 0.000265575
89 *2:87 *90:47 0.000928129
90 *2:87 *140:17 0
91 *2:87 *140:32 0
92 *2:87 *145:33 0
93 *2:87 *167:53 0.000499287
94 *2:87 *167:59 0.00166258
95 *2:87 *169:46 0
96 *2:98 S2BEGb[2] 0.000369936
97 *2:98 *45:66 0.00176646
98 *2:98 *156:36 0.000369936
99 *2:98 *406:8 0.00176551
100 *2:104 *89:179 0
101 *2:104 *90:305 7.92412e-05
102 *2:104 *162:31 0.000144768
103 *2:104 *205:12 0
104 *2:104 *228:41 0.00114184
105 *2:121 SS4BEG[6] 0
106 *2:121 *784:A2 0
107 *2:121 *21:73 0
108 *2:121 *28:59 0.00015611
109 *2:121 *89:187 0.000126354
110 *2:121 *90:141 0
111 *2:121 *90:158 0.000866506
112 *2:121 *90:162 0.000713674
113 *2:121 *90:166 0
114 *2:121 *147:62 0
115 *2:138 FrameStrobe_O[13] 0.000143908
116 *2:138 *22:65 0.00108799
117 *2:138 *227:16 0.00198539
118 *2:138 *229:54 0
119 *2:153 *805:S1 0.000240377
120 *2:153 *17:53 0.000235347
121 *2:153 *19:49 0.00023464
122 *2:153 *148:68 0.000595204
123 *2:153 *154:31 0
124 *2:153 *395:10 0
125 A_I_top *2:33 0
*RES
1 A_O_top *2:33 47.9301 
2 *2:33 *2:39 35.5015 
3 *2:39 *697:A1 20.6695 
4 *2:39 *2:60 43.2239 
5 *2:60 *2:64 36.9126 
6 *2:64 *2:72 42.0291 
7 *2:72 *812:A1 41.8334 
8 *2:72 *2:87 30.3103 
9 *2:87 *810:A1 20 
10 *2:87 *2:98 30.7429 
11 *2:98 *2:104 48.1061 
12 *2:104 *806:A2 46.2315 
13 *2:104 *2:121 11.4021 
14 *2:121 *955:D 45.2427 
15 *2:121 *2:138 30.4648 
16 *2:138 *786:A3 20 
17 *2:138 *2:153 46.3345 
18 *2:153 *796:A3 27.2409 
19 *2:98 *808:A2 41.8746 
*END

*D_NET *3 0.00921947
*CONN
*P A_T_top O
*I *703:Y O *D sg13g2_o21ai_1
*CAP
1 A_T_top 0.00194065
2 *703:Y 0.000431639
3 *3:10 0.00237229
4 A_T_top *702:C 0
5 A_T_top *749:A1 0
6 A_T_top *749:S 0
7 A_T_top *751:A1 0
8 A_T_top *751:A3 0.00014458
9 A_T_top *752:B1 0
10 A_T_top *949:D 0
11 A_T_top *7:8 0.000434201
12 A_T_top *78:127 0.000176252
13 A_T_top *130:102 0.000724761
14 A_T_top *130:104 0.000193425
15 A_T_top *130:127 0.000257317
16 A_T_top *461:22 0
17 *3:10 *16:13 0.000555723
18 *3:10 *126:101 0.000770872
19 *3:10 *126:113 0.000501377
20 *3:10 *137:136 0.000716395
*RES
1 *703:Y *3:10 47.2512 
2 *3:10 A_T_top 39.6112 
*END

*D_NET *4 0.00580615
*CONN
*P B_I_top O
*I *764:Y O *D sg13g2_o21ai_1
*CAP
1 B_I_top 0.00163319
2 *764:Y 0.000255503
3 *4:8 0.0018887
4 B_I_top B_T_top 0
5 B_I_top *728:A0 0
6 B_I_top *728:A1 4.77702e-05
7 B_I_top *731:B1 0
8 B_I_top *731:A2 0.000690283
9 B_I_top *732:B1 0
10 B_I_top *754:A1 0.000112656